file 1229796 1604148827                                         
version 2
run Ping2-0-20201031-09:52:47-97022
attr configname Ping2
attr datetime 20201031-09:52:47
attr experiment Ping2
attr inifile omnetpp.ini
attr iterationvars ""
attr iterationvarsf ""
attr measurement ""
attr network BasicFloodProtNet
attr processid 97022
attr repetition 0
attr replication #0
attr resultdir results
attr runnumber 0
attr seedset 0
param **.constraintAreaMinX 0m
param **.constraintAreaMinY 0m
param **.constraintAreaMinZ 0m
param **.constraintAreaMaxX 300m
param **.constraintAreaMaxY 200m
param **.constraintAreaMaxZ 0m
param **.host*.mobility.typename "\"StationaryMobility\""
param **.host*.mobility.initFromDisplayString false
param *.host[*].numApps 1
param *.host[*].app[*].typename "\"BasicFloodProt\""
param *.host[1].app[*].destAddress "\"host[0]\""
param *.host[1].app[*].enableSend true
param *.host[1].app[*].flowId 1
param *.host[*].app[0].startTime "uniform(1s, 1.5s)"
param **.limitedBroadcast true
param **.wlan[*].bitrate 2Mbps
param **.wlan[*].mac.dcf.channelAccess.cwMin 7
param **.wlan[*].radio.transmitter.power 2mW
param **.wlan[*].radio.receiver.sensitivity -85dBm
param **.wlan[*].radio.receiver.snirThreshold 4dB

vector 0 BasicFloodProtNet.host[0].wlan[0].radio radioMode:vector ETV
attr interpolationmode sample-hold
attr source radioModeChanged
attr title "Radio mode, vector"
vector 1 BasicFloodProtNet.host[0].wlan[0].radio radioChannel:vector ETV
attr interpolationmode sample-hold
attr source radioChannelChanged
attr title "Radio channel, vector"
vector 2 BasicFloodProtNet.host[1].wlan[0].radio radioMode:vector ETV
attr interpolationmode sample-hold
attr source radioModeChanged
attr title "Radio mode, vector"
vector 3 BasicFloodProtNet.host[1].wlan[0].radio radioChannel:vector ETV
attr interpolationmode sample-hold
attr source radioChannelChanged
attr title "Radio channel, vector"
vector 4 BasicFloodProtNet.host[2].wlan[0].radio radioMode:vector ETV
attr interpolationmode sample-hold
attr source radioModeChanged
attr title "Radio mode, vector"
vector 5 BasicFloodProtNet.host[2].wlan[0].radio radioChannel:vector ETV
attr interpolationmode sample-hold
attr source radioChannelChanged
attr title "Radio channel, vector"
vector 6 BasicFloodProtNet.host[3].wlan[0].radio radioMode:vector ETV
attr interpolationmode sample-hold
attr source radioModeChanged
attr title "Radio mode, vector"
vector 7 BasicFloodProtNet.host[3].wlan[0].radio radioChannel:vector ETV
attr interpolationmode sample-hold
attr source radioChannelChanged
attr title "Radio channel, vector"
vector 8 BasicFloodProtNet.host[4].wlan[0].radio radioMode:vector ETV
attr interpolationmode sample-hold
attr source radioModeChanged
attr title "Radio mode, vector"
vector 9 BasicFloodProtNet.host[4].wlan[0].radio radioChannel:vector ETV
attr interpolationmode sample-hold
attr source radioChannelChanged
attr title "Radio channel, vector"
vector 10 BasicFloodProtNet.host[5].wlan[0].radio radioMode:vector ETV
attr interpolationmode sample-hold
attr source radioModeChanged
attr title "Radio mode, vector"
vector 11 BasicFloodProtNet.host[5].wlan[0].radio radioChannel:vector ETV
attr interpolationmode sample-hold
attr source radioChannelChanged
attr title "Radio channel, vector"
vector 12 BasicFloodProtNet.host[6].wlan[0].radio radioMode:vector ETV
attr interpolationmode sample-hold
attr source radioModeChanged
attr title "Radio mode, vector"
vector 13 BasicFloodProtNet.host[6].wlan[0].radio radioChannel:vector ETV
attr interpolationmode sample-hold
attr source radioChannelChanged
attr title "Radio channel, vector"
vector 14 BasicFloodProtNet.host[7].wlan[0].radio radioMode:vector ETV
attr interpolationmode sample-hold
attr source radioModeChanged
attr title "Radio mode, vector"
vector 15 BasicFloodProtNet.host[7].wlan[0].radio radioChannel:vector ETV
attr interpolationmode sample-hold
attr source radioChannelChanged
attr title "Radio channel, vector"
vector 16 BasicFloodProtNet.host[8].wlan[0].radio radioMode:vector ETV
attr interpolationmode sample-hold
attr source radioModeChanged
attr title "Radio mode, vector"
vector 17 BasicFloodProtNet.host[8].wlan[0].radio radioChannel:vector ETV
attr interpolationmode sample-hold
attr source radioChannelChanged
attr title "Radio channel, vector"
vector 18 BasicFloodProtNet.host[9].wlan[0].radio radioMode:vector ETV
attr interpolationmode sample-hold
attr source radioModeChanged
attr title "Radio mode, vector"
vector 19 BasicFloodProtNet.host[9].wlan[0].radio radioChannel:vector ETV
attr interpolationmode sample-hold
attr source radioChannelChanged
attr title "Radio channel, vector"
vector 20 BasicFloodProtNet.host[10].wlan[0].radio radioMode:vector ETV
attr interpolationmode sample-hold
attr source radioModeChanged
attr title "Radio mode, vector"
vector 21 BasicFloodProtNet.host[10].wlan[0].radio radioChannel:vector ETV
attr interpolationmode sample-hold
attr source radioChannelChanged
attr title "Radio channel, vector"
vector 22 BasicFloodProtNet.host[11].wlan[0].radio radioMode:vector ETV
attr interpolationmode sample-hold
attr source radioModeChanged
attr title "Radio mode, vector"
vector 23 BasicFloodProtNet.host[11].wlan[0].radio radioChannel:vector ETV
attr interpolationmode sample-hold
attr source radioChannelChanged
attr title "Radio channel, vector"
vector 24 BasicFloodProtNet.host[12].wlan[0].radio radioMode:vector ETV
attr interpolationmode sample-hold
attr source radioModeChanged
attr title "Radio mode, vector"
vector 25 BasicFloodProtNet.host[12].wlan[0].radio radioChannel:vector ETV
attr interpolationmode sample-hold
attr source radioChannelChanged
attr title "Radio channel, vector"
vector 26 BasicFloodProtNet.host[13].wlan[0].radio radioMode:vector ETV
attr interpolationmode sample-hold
attr source radioModeChanged
attr title "Radio mode, vector"
vector 27 BasicFloodProtNet.host[13].wlan[0].radio radioChannel:vector ETV
attr interpolationmode sample-hold
attr source radioChannelChanged
attr title "Radio channel, vector"
vector 28 BasicFloodProtNet.host[14].wlan[0].radio radioMode:vector ETV
attr interpolationmode sample-hold
attr source radioModeChanged
attr title "Radio mode, vector"
vector 29 BasicFloodProtNet.host[14].wlan[0].radio radioChannel:vector ETV
attr interpolationmode sample-hold
attr source radioChannelChanged
attr title "Radio channel, vector"
vector 30 BasicFloodProtNet.host[15].wlan[0].radio radioMode:vector ETV
attr interpolationmode sample-hold
attr source radioModeChanged
attr title "Radio mode, vector"
vector 31 BasicFloodProtNet.host[15].wlan[0].radio radioChannel:vector ETV
attr interpolationmode sample-hold
attr source radioChannelChanged
attr title "Radio channel, vector"
vector 32 BasicFloodProtNet.host[16].wlan[0].radio radioMode:vector ETV
attr interpolationmode sample-hold
attr source radioModeChanged
attr title "Radio mode, vector"
vector 33 BasicFloodProtNet.host[16].wlan[0].radio radioChannel:vector ETV
attr interpolationmode sample-hold
attr source radioChannelChanged
attr title "Radio channel, vector"
vector 34 BasicFloodProtNet.host[17].wlan[0].radio radioMode:vector ETV
attr interpolationmode sample-hold
attr source radioModeChanged
attr title "Radio mode, vector"
vector 35 BasicFloodProtNet.host[17].wlan[0].radio radioChannel:vector ETV
attr interpolationmode sample-hold
attr source radioChannelChanged
attr title "Radio channel, vector"
vector 36 BasicFloodProtNet.host[18].wlan[0].radio radioMode:vector ETV
attr interpolationmode sample-hold
attr source radioModeChanged
attr title "Radio mode, vector"
vector 37 BasicFloodProtNet.host[18].wlan[0].radio radioChannel:vector ETV
attr interpolationmode sample-hold
attr source radioChannelChanged
attr title "Radio channel, vector"
vector 38 BasicFloodProtNet.host[19].wlan[0].radio radioMode:vector ETV
attr interpolationmode sample-hold
attr source radioModeChanged
attr title "Radio mode, vector"
vector 39 BasicFloodProtNet.host[19].wlan[0].radio radioChannel:vector ETV
attr interpolationmode sample-hold
attr source radioChannelChanged
attr title "Radio channel, vector"
vector 40 BasicFloodProtNet.host[20].wlan[0].radio radioMode:vector ETV
attr interpolationmode sample-hold
attr source radioModeChanged
attr title "Radio mode, vector"
vector 41 BasicFloodProtNet.host[20].wlan[0].radio radioChannel:vector ETV
attr interpolationmode sample-hold
attr source radioChannelChanged
attr title "Radio channel, vector"
vector 42 BasicFloodProtNet.host[21].wlan[0].radio radioMode:vector ETV
attr interpolationmode sample-hold
attr source radioModeChanged
attr title "Radio mode, vector"
vector 43 BasicFloodProtNet.host[21].wlan[0].radio radioChannel:vector ETV
attr interpolationmode sample-hold
attr source radioChannelChanged
attr title "Radio channel, vector"
vector 44 BasicFloodProtNet.host[22].wlan[0].radio radioMode:vector ETV
attr interpolationmode sample-hold
attr source radioModeChanged
attr title "Radio mode, vector"
vector 45 BasicFloodProtNet.host[22].wlan[0].radio radioChannel:vector ETV
attr interpolationmode sample-hold
attr source radioChannelChanged
attr title "Radio channel, vector"
vector 46 BasicFloodProtNet.host[23].wlan[0].radio radioMode:vector ETV
attr interpolationmode sample-hold
attr source radioModeChanged
attr title "Radio mode, vector"
vector 47 BasicFloodProtNet.host[23].wlan[0].radio radioChannel:vector ETV
attr interpolationmode sample-hold
attr source radioChannelChanged
attr title "Radio channel, vector"
vector 48 BasicFloodProtNet.host[24].wlan[0].radio radioMode:vector ETV
attr interpolationmode sample-hold
attr source radioModeChanged
attr title "Radio mode, vector"
vector 49 BasicFloodProtNet.host[24].wlan[0].radio radioChannel:vector ETV
attr interpolationmode sample-hold
attr source radioChannelChanged
attr title "Radio channel, vector"
vector 50 BasicFloodProtNet.host[25].wlan[0].radio radioMode:vector ETV
attr interpolationmode sample-hold
attr source radioModeChanged
attr title "Radio mode, vector"
vector 51 BasicFloodProtNet.host[25].wlan[0].radio radioChannel:vector ETV
attr interpolationmode sample-hold
attr source radioChannelChanged
attr title "Radio channel, vector"
vector 52 BasicFloodProtNet.host[26].wlan[0].radio radioMode:vector ETV
attr interpolationmode sample-hold
attr source radioModeChanged
attr title "Radio mode, vector"
vector 53 BasicFloodProtNet.host[26].wlan[0].radio radioChannel:vector ETV
attr interpolationmode sample-hold
attr source radioChannelChanged
attr title "Radio channel, vector"
vector 54 BasicFloodProtNet.host[27].wlan[0].radio radioMode:vector ETV
attr interpolationmode sample-hold
attr source radioModeChanged
attr title "Radio mode, vector"
vector 55 BasicFloodProtNet.host[27].wlan[0].radio radioChannel:vector ETV
attr interpolationmode sample-hold
attr source radioChannelChanged
attr title "Radio channel, vector"
vector 56 BasicFloodProtNet.host[28].wlan[0].radio radioMode:vector ETV
attr interpolationmode sample-hold
attr source radioModeChanged
attr title "Radio mode, vector"
vector 57 BasicFloodProtNet.host[28].wlan[0].radio radioChannel:vector ETV
attr interpolationmode sample-hold
attr source radioChannelChanged
attr title "Radio channel, vector"
vector 58 BasicFloodProtNet.host[29].wlan[0].radio radioMode:vector ETV
attr interpolationmode sample-hold
attr source radioModeChanged
attr title "Radio mode, vector"
vector 59 BasicFloodProtNet.host[29].wlan[0].radio radioChannel:vector ETV
attr interpolationmode sample-hold
attr source radioChannelChanged
attr title "Radio channel, vector"
vector 60 BasicFloodProtNet.host[30].wlan[0].radio radioMode:vector ETV
attr interpolationmode sample-hold
attr source radioModeChanged
attr title "Radio mode, vector"
vector 61 BasicFloodProtNet.host[30].wlan[0].radio radioChannel:vector ETV
attr interpolationmode sample-hold
attr source radioChannelChanged
attr title "Radio channel, vector"
vector 62 BasicFloodProtNet.host[31].wlan[0].radio radioMode:vector ETV
attr interpolationmode sample-hold
attr source radioModeChanged
attr title "Radio mode, vector"
vector 63 BasicFloodProtNet.host[31].wlan[0].radio radioChannel:vector ETV
attr interpolationmode sample-hold
attr source radioChannelChanged
attr title "Radio channel, vector"
vector 64 BasicFloodProtNet.host[32].wlan[0].radio radioMode:vector ETV
attr interpolationmode sample-hold
attr source radioModeChanged
attr title "Radio mode, vector"
vector 65 BasicFloodProtNet.host[32].wlan[0].radio radioChannel:vector ETV
attr interpolationmode sample-hold
attr source radioChannelChanged
attr title "Radio channel, vector"
vector 66 BasicFloodProtNet.host[33].wlan[0].radio radioMode:vector ETV
attr interpolationmode sample-hold
attr source radioModeChanged
attr title "Radio mode, vector"
vector 67 BasicFloodProtNet.host[33].wlan[0].radio radioChannel:vector ETV
attr interpolationmode sample-hold
attr source radioChannelChanged
attr title "Radio channel, vector"
vector 68 BasicFloodProtNet.host[34].wlan[0].radio radioMode:vector ETV
attr interpolationmode sample-hold
attr source radioModeChanged
attr title "Radio mode, vector"
vector 69 BasicFloodProtNet.host[34].wlan[0].radio radioChannel:vector ETV
attr interpolationmode sample-hold
attr source radioChannelChanged
attr title "Radio channel, vector"
vector 70 BasicFloodProtNet.host[35].wlan[0].radio radioMode:vector ETV
attr interpolationmode sample-hold
attr source radioModeChanged
attr title "Radio mode, vector"
vector 71 BasicFloodProtNet.host[35].wlan[0].radio radioChannel:vector ETV
attr interpolationmode sample-hold
attr source radioChannelChanged
attr title "Radio channel, vector"
vector 72 BasicFloodProtNet.host[36].wlan[0].radio radioMode:vector ETV
attr interpolationmode sample-hold
attr source radioModeChanged
attr title "Radio mode, vector"
vector 73 BasicFloodProtNet.host[36].wlan[0].radio radioChannel:vector ETV
attr interpolationmode sample-hold
attr source radioChannelChanged
attr title "Radio channel, vector"
vector 74 BasicFloodProtNet.host[37].wlan[0].radio radioMode:vector ETV
attr interpolationmode sample-hold
attr source radioModeChanged
attr title "Radio mode, vector"
vector 75 BasicFloodProtNet.host[37].wlan[0].radio radioChannel:vector ETV
attr interpolationmode sample-hold
attr source radioChannelChanged
attr title "Radio channel, vector"
vector 76 BasicFloodProtNet.host[38].wlan[0].radio radioMode:vector ETV
attr interpolationmode sample-hold
attr source radioModeChanged
attr title "Radio mode, vector"
vector 77 BasicFloodProtNet.host[38].wlan[0].radio radioChannel:vector ETV
attr interpolationmode sample-hold
attr source radioChannelChanged
attr title "Radio channel, vector"
vector 78 BasicFloodProtNet.host[39].wlan[0].radio radioMode:vector ETV
attr interpolationmode sample-hold
attr source radioModeChanged
attr title "Radio mode, vector"
vector 79 BasicFloodProtNet.host[39].wlan[0].radio radioChannel:vector ETV
attr interpolationmode sample-hold
attr source radioChannelChanged
attr title "Radio channel, vector"
vector 80 BasicFloodProtNet.host[40].wlan[0].radio radioMode:vector ETV
attr interpolationmode sample-hold
attr source radioModeChanged
attr title "Radio mode, vector"
vector 81 BasicFloodProtNet.host[40].wlan[0].radio radioChannel:vector ETV
attr interpolationmode sample-hold
attr source radioChannelChanged
attr title "Radio channel, vector"
vector 82 BasicFloodProtNet.host[41].wlan[0].radio radioMode:vector ETV
attr interpolationmode sample-hold
attr source radioModeChanged
attr title "Radio mode, vector"
vector 83 BasicFloodProtNet.host[41].wlan[0].radio radioChannel:vector ETV
attr interpolationmode sample-hold
attr source radioChannelChanged
attr title "Radio channel, vector"
vector 84 BasicFloodProtNet.host[42].wlan[0].radio radioMode:vector ETV
attr interpolationmode sample-hold
attr source radioModeChanged
attr title "Radio mode, vector"
vector 85 BasicFloodProtNet.host[42].wlan[0].radio radioChannel:vector ETV
attr interpolationmode sample-hold
attr source radioChannelChanged
attr title "Radio channel, vector"
vector 86 BasicFloodProtNet.host[43].wlan[0].radio radioMode:vector ETV
attr interpolationmode sample-hold
attr source radioModeChanged
attr title "Radio mode, vector"
vector 87 BasicFloodProtNet.host[43].wlan[0].radio radioChannel:vector ETV
attr interpolationmode sample-hold
attr source radioChannelChanged
attr title "Radio channel, vector"
vector 88 BasicFloodProtNet.host[44].wlan[0].radio radioMode:vector ETV
attr interpolationmode sample-hold
attr source radioModeChanged
attr title "Radio mode, vector"
vector 89 BasicFloodProtNet.host[44].wlan[0].radio radioChannel:vector ETV
attr interpolationmode sample-hold
attr source radioChannelChanged
attr title "Radio channel, vector"
vector 90 BasicFloodProtNet.host[45].wlan[0].radio radioMode:vector ETV
attr interpolationmode sample-hold
attr source radioModeChanged
attr title "Radio mode, vector"
vector 91 BasicFloodProtNet.host[45].wlan[0].radio radioChannel:vector ETV
attr interpolationmode sample-hold
attr source radioChannelChanged
attr title "Radio channel, vector"
vector 92 BasicFloodProtNet.host[46].wlan[0].radio radioMode:vector ETV
attr interpolationmode sample-hold
attr source radioModeChanged
attr title "Radio mode, vector"
vector 93 BasicFloodProtNet.host[46].wlan[0].radio radioChannel:vector ETV
attr interpolationmode sample-hold
attr source radioChannelChanged
attr title "Radio channel, vector"
vector 94 BasicFloodProtNet.host[47].wlan[0].radio radioMode:vector ETV
attr interpolationmode sample-hold
attr source radioModeChanged
attr title "Radio mode, vector"
vector 95 BasicFloodProtNet.host[47].wlan[0].radio radioChannel:vector ETV
attr interpolationmode sample-hold
attr source radioChannelChanged
attr title "Radio channel, vector"
vector 96 BasicFloodProtNet.host[48].wlan[0].radio radioMode:vector ETV
attr interpolationmode sample-hold
attr source radioModeChanged
attr title "Radio mode, vector"
vector 97 BasicFloodProtNet.host[48].wlan[0].radio radioChannel:vector ETV
attr interpolationmode sample-hold
attr source radioChannelChanged
attr title "Radio channel, vector"
vector 98 BasicFloodProtNet.host[49].wlan[0].radio radioMode:vector ETV
attr interpolationmode sample-hold
attr source radioModeChanged
attr title "Radio mode, vector"
vector 99 BasicFloodProtNet.host[49].wlan[0].radio radioChannel:vector ETV
attr interpolationmode sample-hold
attr source radioChannelChanged
attr title "Radio channel, vector"
vector 100 BasicFloodProtNet.host[0].wlan[0].radio receptionState:vector ETV
attr interpolationmode sample-hold
attr source receptionStateChanged
attr title "Radio reception state, vector"
vector 101 BasicFloodProtNet.host[1].wlan[0].radio receptionState:vector ETV
attr interpolationmode sample-hold
attr source receptionStateChanged
attr title "Radio reception state, vector"
vector 102 BasicFloodProtNet.host[2].wlan[0].radio receptionState:vector ETV
attr interpolationmode sample-hold
attr source receptionStateChanged
attr title "Radio reception state, vector"
vector 103 BasicFloodProtNet.host[3].wlan[0].radio receptionState:vector ETV
attr interpolationmode sample-hold
attr source receptionStateChanged
attr title "Radio reception state, vector"
vector 104 BasicFloodProtNet.host[4].wlan[0].radio receptionState:vector ETV
attr interpolationmode sample-hold
attr source receptionStateChanged
attr title "Radio reception state, vector"
vector 105 BasicFloodProtNet.host[5].wlan[0].radio receptionState:vector ETV
attr interpolationmode sample-hold
attr source receptionStateChanged
attr title "Radio reception state, vector"
vector 106 BasicFloodProtNet.host[6].wlan[0].radio receptionState:vector ETV
attr interpolationmode sample-hold
attr source receptionStateChanged
attr title "Radio reception state, vector"
vector 107 BasicFloodProtNet.host[7].wlan[0].radio receptionState:vector ETV
attr interpolationmode sample-hold
attr source receptionStateChanged
attr title "Radio reception state, vector"
vector 108 BasicFloodProtNet.host[8].wlan[0].radio receptionState:vector ETV
attr interpolationmode sample-hold
attr source receptionStateChanged
attr title "Radio reception state, vector"
vector 109 BasicFloodProtNet.host[9].wlan[0].radio receptionState:vector ETV
attr interpolationmode sample-hold
attr source receptionStateChanged
attr title "Radio reception state, vector"
vector 110 BasicFloodProtNet.host[10].wlan[0].radio receptionState:vector ETV
attr interpolationmode sample-hold
attr source receptionStateChanged
attr title "Radio reception state, vector"
vector 111 BasicFloodProtNet.host[11].wlan[0].radio receptionState:vector ETV
attr interpolationmode sample-hold
attr source receptionStateChanged
attr title "Radio reception state, vector"
vector 112 BasicFloodProtNet.host[12].wlan[0].radio receptionState:vector ETV
attr interpolationmode sample-hold
attr source receptionStateChanged
attr title "Radio reception state, vector"
vector 113 BasicFloodProtNet.host[13].wlan[0].radio receptionState:vector ETV
attr interpolationmode sample-hold
attr source receptionStateChanged
attr title "Radio reception state, vector"
vector 114 BasicFloodProtNet.host[14].wlan[0].radio receptionState:vector ETV
attr interpolationmode sample-hold
attr source receptionStateChanged
attr title "Radio reception state, vector"
vector 115 BasicFloodProtNet.host[15].wlan[0].radio receptionState:vector ETV
attr interpolationmode sample-hold
attr source receptionStateChanged
attr title "Radio reception state, vector"
vector 116 BasicFloodProtNet.host[16].wlan[0].radio receptionState:vector ETV
attr interpolationmode sample-hold
attr source receptionStateChanged
attr title "Radio reception state, vector"
vector 117 BasicFloodProtNet.host[17].wlan[0].radio receptionState:vector ETV
attr interpolationmode sample-hold
attr source receptionStateChanged
attr title "Radio reception state, vector"
vector 118 BasicFloodProtNet.host[18].wlan[0].radio receptionState:vector ETV
attr interpolationmode sample-hold
attr source receptionStateChanged
attr title "Radio reception state, vector"
vector 119 BasicFloodProtNet.host[19].wlan[0].radio receptionState:vector ETV
attr interpolationmode sample-hold
attr source receptionStateChanged
attr title "Radio reception state, vector"
vector 120 BasicFloodProtNet.host[20].wlan[0].radio receptionState:vector ETV
attr interpolationmode sample-hold
attr source receptionStateChanged
attr title "Radio reception state, vector"
vector 121 BasicFloodProtNet.host[21].wlan[0].radio receptionState:vector ETV
attr interpolationmode sample-hold
attr source receptionStateChanged
attr title "Radio reception state, vector"
vector 122 BasicFloodProtNet.host[22].wlan[0].radio receptionState:vector ETV
attr interpolationmode sample-hold
attr source receptionStateChanged
attr title "Radio reception state, vector"
vector 123 BasicFloodProtNet.host[23].wlan[0].radio receptionState:vector ETV
attr interpolationmode sample-hold
attr source receptionStateChanged
attr title "Radio reception state, vector"
vector 124 BasicFloodProtNet.host[24].wlan[0].radio receptionState:vector ETV
attr interpolationmode sample-hold
attr source receptionStateChanged
attr title "Radio reception state, vector"
vector 125 BasicFloodProtNet.host[25].wlan[0].radio receptionState:vector ETV
attr interpolationmode sample-hold
attr source receptionStateChanged
attr title "Radio reception state, vector"
vector 126 BasicFloodProtNet.host[26].wlan[0].radio receptionState:vector ETV
attr interpolationmode sample-hold
attr source receptionStateChanged
attr title "Radio reception state, vector"
vector 127 BasicFloodProtNet.host[27].wlan[0].radio receptionState:vector ETV
attr interpolationmode sample-hold
attr source receptionStateChanged
attr title "Radio reception state, vector"
vector 128 BasicFloodProtNet.host[28].wlan[0].radio receptionState:vector ETV
attr interpolationmode sample-hold
attr source receptionStateChanged
attr title "Radio reception state, vector"
vector 129 BasicFloodProtNet.host[29].wlan[0].radio receptionState:vector ETV
attr interpolationmode sample-hold
attr source receptionStateChanged
attr title "Radio reception state, vector"
vector 130 BasicFloodProtNet.host[30].wlan[0].radio receptionState:vector ETV
attr interpolationmode sample-hold
attr source receptionStateChanged
attr title "Radio reception state, vector"
vector 131 BasicFloodProtNet.host[31].wlan[0].radio receptionState:vector ETV
attr interpolationmode sample-hold
attr source receptionStateChanged
attr title "Radio reception state, vector"
vector 132 BasicFloodProtNet.host[32].wlan[0].radio receptionState:vector ETV
attr interpolationmode sample-hold
attr source receptionStateChanged
attr title "Radio reception state, vector"
vector 133 BasicFloodProtNet.host[33].wlan[0].radio receptionState:vector ETV
attr interpolationmode sample-hold
attr source receptionStateChanged
attr title "Radio reception state, vector"
vector 134 BasicFloodProtNet.host[34].wlan[0].radio receptionState:vector ETV
attr interpolationmode sample-hold
attr source receptionStateChanged
attr title "Radio reception state, vector"
vector 135 BasicFloodProtNet.host[35].wlan[0].radio receptionState:vector ETV
attr interpolationmode sample-hold
attr source receptionStateChanged
attr title "Radio reception state, vector"
vector 136 BasicFloodProtNet.host[36].wlan[0].radio receptionState:vector ETV
attr interpolationmode sample-hold
attr source receptionStateChanged
attr title "Radio reception state, vector"
vector 137 BasicFloodProtNet.host[37].wlan[0].radio receptionState:vector ETV
attr interpolationmode sample-hold
attr source receptionStateChanged
attr title "Radio reception state, vector"
vector 138 BasicFloodProtNet.host[38].wlan[0].radio receptionState:vector ETV
attr interpolationmode sample-hold
attr source receptionStateChanged
attr title "Radio reception state, vector"
vector 139 BasicFloodProtNet.host[39].wlan[0].radio receptionState:vector ETV
attr interpolationmode sample-hold
attr source receptionStateChanged
attr title "Radio reception state, vector"
vector 140 BasicFloodProtNet.host[40].wlan[0].radio receptionState:vector ETV
attr interpolationmode sample-hold
attr source receptionStateChanged
attr title "Radio reception state, vector"
vector 141 BasicFloodProtNet.host[41].wlan[0].radio receptionState:vector ETV
attr interpolationmode sample-hold
attr source receptionStateChanged
attr title "Radio reception state, vector"
vector 142 BasicFloodProtNet.host[42].wlan[0].radio receptionState:vector ETV
attr interpolationmode sample-hold
attr source receptionStateChanged
attr title "Radio reception state, vector"
vector 143 BasicFloodProtNet.host[43].wlan[0].radio receptionState:vector ETV
attr interpolationmode sample-hold
attr source receptionStateChanged
attr title "Radio reception state, vector"
vector 144 BasicFloodProtNet.host[44].wlan[0].radio receptionState:vector ETV
attr interpolationmode sample-hold
attr source receptionStateChanged
attr title "Radio reception state, vector"
vector 145 BasicFloodProtNet.host[45].wlan[0].radio receptionState:vector ETV
attr interpolationmode sample-hold
attr source receptionStateChanged
attr title "Radio reception state, vector"
vector 146 BasicFloodProtNet.host[46].wlan[0].radio receptionState:vector ETV
attr interpolationmode sample-hold
attr source receptionStateChanged
attr title "Radio reception state, vector"
vector 147 BasicFloodProtNet.host[47].wlan[0].radio receptionState:vector ETV
attr interpolationmode sample-hold
attr source receptionStateChanged
attr title "Radio reception state, vector"
vector 148 BasicFloodProtNet.host[48].wlan[0].radio receptionState:vector ETV
attr interpolationmode sample-hold
attr source receptionStateChanged
attr title "Radio reception state, vector"
vector 149 BasicFloodProtNet.host[49].wlan[0].radio receptionState:vector ETV
attr interpolationmode sample-hold
attr source receptionStateChanged
attr title "Radio reception state, vector"
vector 150 BasicFloodProtNet.host[0].wlan[0].mac.dcf.recoveryProcedure contentionWindowChanged:vector ETV
attr interpolationmode sample-hold
attr title "contention window, vector"
vector 151 BasicFloodProtNet.host[1].wlan[0].mac.dcf.recoveryProcedure contentionWindowChanged:vector ETV
attr interpolationmode sample-hold
attr title "contention window, vector"
vector 152 BasicFloodProtNet.host[2].wlan[0].mac.dcf.recoveryProcedure contentionWindowChanged:vector ETV
attr interpolationmode sample-hold
attr title "contention window, vector"
vector 153 BasicFloodProtNet.host[3].wlan[0].mac.dcf.recoveryProcedure contentionWindowChanged:vector ETV
attr interpolationmode sample-hold
attr title "contention window, vector"
vector 154 BasicFloodProtNet.host[4].wlan[0].mac.dcf.recoveryProcedure contentionWindowChanged:vector ETV
attr interpolationmode sample-hold
attr title "contention window, vector"
vector 155 BasicFloodProtNet.host[5].wlan[0].mac.dcf.recoveryProcedure contentionWindowChanged:vector ETV
attr interpolationmode sample-hold
attr title "contention window, vector"
vector 156 BasicFloodProtNet.host[6].wlan[0].mac.dcf.recoveryProcedure contentionWindowChanged:vector ETV
attr interpolationmode sample-hold
attr title "contention window, vector"
vector 157 BasicFloodProtNet.host[7].wlan[0].mac.dcf.recoveryProcedure contentionWindowChanged:vector ETV
attr interpolationmode sample-hold
attr title "contention window, vector"
vector 158 BasicFloodProtNet.host[8].wlan[0].mac.dcf.recoveryProcedure contentionWindowChanged:vector ETV
attr interpolationmode sample-hold
attr title "contention window, vector"
vector 159 BasicFloodProtNet.host[9].wlan[0].mac.dcf.recoveryProcedure contentionWindowChanged:vector ETV
attr interpolationmode sample-hold
attr title "contention window, vector"
vector 160 BasicFloodProtNet.host[10].wlan[0].mac.dcf.recoveryProcedure contentionWindowChanged:vector ETV
attr interpolationmode sample-hold
attr title "contention window, vector"
vector 161 BasicFloodProtNet.host[11].wlan[0].mac.dcf.recoveryProcedure contentionWindowChanged:vector ETV
attr interpolationmode sample-hold
attr title "contention window, vector"
vector 162 BasicFloodProtNet.host[12].wlan[0].mac.dcf.recoveryProcedure contentionWindowChanged:vector ETV
attr interpolationmode sample-hold
attr title "contention window, vector"
vector 163 BasicFloodProtNet.host[13].wlan[0].mac.dcf.recoveryProcedure contentionWindowChanged:vector ETV
attr interpolationmode sample-hold
attr title "contention window, vector"
vector 164 BasicFloodProtNet.host[14].wlan[0].mac.dcf.recoveryProcedure contentionWindowChanged:vector ETV
attr interpolationmode sample-hold
attr title "contention window, vector"
vector 165 BasicFloodProtNet.host[15].wlan[0].mac.dcf.recoveryProcedure contentionWindowChanged:vector ETV
attr interpolationmode sample-hold
attr title "contention window, vector"
vector 166 BasicFloodProtNet.host[16].wlan[0].mac.dcf.recoveryProcedure contentionWindowChanged:vector ETV
attr interpolationmode sample-hold
attr title "contention window, vector"
vector 167 BasicFloodProtNet.host[17].wlan[0].mac.dcf.recoveryProcedure contentionWindowChanged:vector ETV
attr interpolationmode sample-hold
attr title "contention window, vector"
vector 168 BasicFloodProtNet.host[18].wlan[0].mac.dcf.recoveryProcedure contentionWindowChanged:vector ETV
attr interpolationmode sample-hold
attr title "contention window, vector"
vector 169 BasicFloodProtNet.host[19].wlan[0].mac.dcf.recoveryProcedure contentionWindowChanged:vector ETV
attr interpolationmode sample-hold
attr title "contention window, vector"
vector 170 BasicFloodProtNet.host[20].wlan[0].mac.dcf.recoveryProcedure contentionWindowChanged:vector ETV
attr interpolationmode sample-hold
attr title "contention window, vector"
vector 171 BasicFloodProtNet.host[21].wlan[0].mac.dcf.recoveryProcedure contentionWindowChanged:vector ETV
attr interpolationmode sample-hold
attr title "contention window, vector"
vector 172 BasicFloodProtNet.host[22].wlan[0].mac.dcf.recoveryProcedure contentionWindowChanged:vector ETV
attr interpolationmode sample-hold
attr title "contention window, vector"
vector 173 BasicFloodProtNet.host[23].wlan[0].mac.dcf.recoveryProcedure contentionWindowChanged:vector ETV
attr interpolationmode sample-hold
attr title "contention window, vector"
vector 174 BasicFloodProtNet.host[24].wlan[0].mac.dcf.recoveryProcedure contentionWindowChanged:vector ETV
attr interpolationmode sample-hold
attr title "contention window, vector"
vector 175 BasicFloodProtNet.host[25].wlan[0].mac.dcf.recoveryProcedure contentionWindowChanged:vector ETV
attr interpolationmode sample-hold
attr title "contention window, vector"
vector 176 BasicFloodProtNet.host[26].wlan[0].mac.dcf.recoveryProcedure contentionWindowChanged:vector ETV
attr interpolationmode sample-hold
attr title "contention window, vector"
vector 177 BasicFloodProtNet.host[27].wlan[0].mac.dcf.recoveryProcedure contentionWindowChanged:vector ETV
attr interpolationmode sample-hold
attr title "contention window, vector"
vector 178 BasicFloodProtNet.host[28].wlan[0].mac.dcf.recoveryProcedure contentionWindowChanged:vector ETV
attr interpolationmode sample-hold
attr title "contention window, vector"
vector 179 BasicFloodProtNet.host[29].wlan[0].mac.dcf.recoveryProcedure contentionWindowChanged:vector ETV
attr interpolationmode sample-hold
attr title "contention window, vector"
vector 180 BasicFloodProtNet.host[30].wlan[0].mac.dcf.recoveryProcedure contentionWindowChanged:vector ETV
attr interpolationmode sample-hold
attr title "contention window, vector"
vector 181 BasicFloodProtNet.host[31].wlan[0].mac.dcf.recoveryProcedure contentionWindowChanged:vector ETV
attr interpolationmode sample-hold
attr title "contention window, vector"
vector 182 BasicFloodProtNet.host[32].wlan[0].mac.dcf.recoveryProcedure contentionWindowChanged:vector ETV
attr interpolationmode sample-hold
attr title "contention window, vector"
vector 183 BasicFloodProtNet.host[33].wlan[0].mac.dcf.recoveryProcedure contentionWindowChanged:vector ETV
attr interpolationmode sample-hold
attr title "contention window, vector"
vector 184 BasicFloodProtNet.host[34].wlan[0].mac.dcf.recoveryProcedure contentionWindowChanged:vector ETV
attr interpolationmode sample-hold
attr title "contention window, vector"
vector 185 BasicFloodProtNet.host[35].wlan[0].mac.dcf.recoveryProcedure contentionWindowChanged:vector ETV
attr interpolationmode sample-hold
attr title "contention window, vector"
vector 186 BasicFloodProtNet.host[36].wlan[0].mac.dcf.recoveryProcedure contentionWindowChanged:vector ETV
attr interpolationmode sample-hold
attr title "contention window, vector"
vector 187 BasicFloodProtNet.host[37].wlan[0].mac.dcf.recoveryProcedure contentionWindowChanged:vector ETV
attr interpolationmode sample-hold
attr title "contention window, vector"
vector 188 BasicFloodProtNet.host[38].wlan[0].mac.dcf.recoveryProcedure contentionWindowChanged:vector ETV
attr interpolationmode sample-hold
attr title "contention window, vector"
vector 189 BasicFloodProtNet.host[39].wlan[0].mac.dcf.recoveryProcedure contentionWindowChanged:vector ETV
attr interpolationmode sample-hold
attr title "contention window, vector"
vector 190 BasicFloodProtNet.host[40].wlan[0].mac.dcf.recoveryProcedure contentionWindowChanged:vector ETV
attr interpolationmode sample-hold
attr title "contention window, vector"
vector 191 BasicFloodProtNet.host[41].wlan[0].mac.dcf.recoveryProcedure contentionWindowChanged:vector ETV
attr interpolationmode sample-hold
attr title "contention window, vector"
vector 192 BasicFloodProtNet.host[42].wlan[0].mac.dcf.recoveryProcedure contentionWindowChanged:vector ETV
attr interpolationmode sample-hold
attr title "contention window, vector"
vector 193 BasicFloodProtNet.host[43].wlan[0].mac.dcf.recoveryProcedure contentionWindowChanged:vector ETV
attr interpolationmode sample-hold
attr title "contention window, vector"
vector 194 BasicFloodProtNet.host[44].wlan[0].mac.dcf.recoveryProcedure contentionWindowChanged:vector ETV
attr interpolationmode sample-hold
attr title "contention window, vector"
vector 195 BasicFloodProtNet.host[45].wlan[0].mac.dcf.recoveryProcedure contentionWindowChanged:vector ETV
attr interpolationmode sample-hold
attr title "contention window, vector"
vector 196 BasicFloodProtNet.host[46].wlan[0].mac.dcf.recoveryProcedure contentionWindowChanged:vector ETV
attr interpolationmode sample-hold
attr title "contention window, vector"
vector 197 BasicFloodProtNet.host[47].wlan[0].mac.dcf.recoveryProcedure contentionWindowChanged:vector ETV
attr interpolationmode sample-hold
attr title "contention window, vector"
vector 198 BasicFloodProtNet.host[48].wlan[0].mac.dcf.recoveryProcedure contentionWindowChanged:vector ETV
attr interpolationmode sample-hold
attr title "contention window, vector"
vector 199 BasicFloodProtNet.host[49].wlan[0].mac.dcf.recoveryProcedure contentionWindowChanged:vector ETV
attr interpolationmode sample-hold
attr title "contention window, vector"
vector 200 BasicFloodProtNet.host[1].app[0] packetSent:vector(packetBytes) ETV
attr interpolationmode none
attr source packetSent
attr title "packets sent, vector(packetBytes)"
vector 201 BasicFloodProtNet.host[1].udp packetSent:vector(packetBytes) ETV
attr interpolationmode none
attr source packetSent
attr title "packets sent, vector(packetBytes)"
vector 202 BasicFloodProtNet.host[1].lo[0].lo rcvdPkFromHl:vector(packetBytes) ETV
attr interpolationmode none
attr source packetReceivedFromUpper
attr title "packets received from higher layer, vector(packetBytes)"
vector 203 BasicFloodProtNet.host[1].lo[0].lo passedUpPk:vector(packetBytes) ETV
attr interpolationmode none
attr source packetSentToUpper
attr title "packets passed to higher layer, vector(packetBytes)"
vector 204 BasicFloodProtNet.host[1].wlan[0].mac packetReceivedFromUpper:vector(packetBytes) ETV
attr interpolationmode none
attr title "packets received from upper layer, vector(packetBytes)"
vector 205 BasicFloodProtNet.host[1].wlan[0].mac.dcf.channelAccess.pendingQueue packetPushed:vector(packetBytes) ETV
attr interpolationmode none
attr title "packet pushed, vector(packetBytes)"
vector 206 BasicFloodProtNet.host[1].wlan[0].mac.dcf.channelAccess.pendingQueue queueLength:vector ETV
attr interpolationmode sample-hold
attr source "count(packetPushed) - count(packetPopped) - count(packetRemoved) - count(packetDropped)"
attr title "queue length, vector"
vector 207 BasicFloodProtNet.host[1].wlan[0].mac.dcf.channelAccess.contention backoffPeriodGenerated:vector ETV
attr interpolationmode none
attr title "backoff periods, vector"
vector 208 BasicFloodProtNet.host[1].wlan[0].mac.dcf.channelAccess.contention backoffActive:vector ETV
attr interpolationmode sample-hold
attr source count(backoffStarted)-count(backoffStopped)
attr title "backoff active, vector"
vector 209 BasicFloodProtNet.host[1].udp packetReceived:vector(packetBytes) ETV
attr interpolationmode none
attr source packetReceived
attr title "packets received, vector(packetBytes)"
vector 210 BasicFloodProtNet.host[1].udp passedUpPk:vector(count) ETV
attr interpolationmode none
attr source packetSentToUpper
attr title "packets passed up, vector(count)"
vector 211 BasicFloodProtNet.host[1].app[0] packetReceived:vector(packetBytes) ETV
attr interpolationmode none
attr source packetReceived
attr title "packets received, vector(packetBytes)"
vector 212 BasicFloodProtNet.host[1].app[0] throughput:vector ETV
attr source throughput(packetReceived)
attr title "throughput, vector"
attr unit bps
vector 213 BasicFloodProtNet.host[1].app[0] rcvdPkLifetime:vector ETV
attr interpolationmode none
attr source dataAge(packetReceived)
attr title "received packet lifetime, vector"
attr unit s
vector 214 BasicFloodProtNet.host[1].wlan[0].mac.dcf.channelAccess.pendingQueue packetPopped:vector(packetBytes) ETV
attr interpolationmode none
attr title "packet popped, vector(packetBytes)"
vector 215 BasicFloodProtNet.host[1].wlan[0].mac.dcf.channelAccess.pendingQueue queueingTime:vector ETV
attr interpolationmode none
attr source queueingTime(packetPopped)
attr title "queueing times, vector"
attr unit s
vector 216 BasicFloodProtNet.host[1].wlan[0].mac.dcf.channelAccess.inProgressFrames queueLength:vector ETV
attr interpolationmode sample-hold
attr source "count(packetEnqueued) - count(packetDequeued)"
attr title "queue length, vector"
vector 217 BasicFloodProtNet.host[1].wlan[0].mac.dcf datarateSelected:vector ETV
attr interpolationmode none
attr title "datarates selected, vector"
vector 218 BasicFloodProtNet.host[1].wlan[0].mac packetSentToLower:vector(packetBytes) ETV
attr interpolationmode none
attr title "packets sent to lower layer, vector(packetBytes)"
vector 219 BasicFloodProtNet.host[1].wlan[0].mac.dcf frameSequenceActive:vector ETV
attr interpolationmode sample-hold
attr source count(frameSequenceStarted)-count(frameSequenceFinished)
attr title "frame sequence active, vector"
vector 220 BasicFloodProtNet.host[1].wlan[0].radio transmissionState:vector ETV
attr interpolationmode sample-hold
attr source transmissionStateChanged
attr title "Radio transmission state, vector"
vector 221 BasicFloodProtNet.host[1].wlan[0].mac.dcf packetSentToPeer:vector(packetBytes) ETV
attr interpolationmode none
attr title "packets sent, vector(packetBytes)"
vector 222 BasicFloodProtNet.host[1].wlan[0].mac.dcf packetSentToPeerMulticast:vector(packetBytes) ETV
attr interpolationmode none
attr source ieee80211Multicast(packetSentToPeer)
attr title "packets sent: multicast, vector(packetBytes)"
vector 223 BasicFloodProtNet.host[1].wlan[0].mac.dcf packetSentToPeerBroadcast:vector(packetBytes) ETV
attr interpolationmode none
attr source ieee80211Broadcast(packetSentToPeer)
attr title "packets sent: broadcast , vector(packetBytes)"
vector 224 BasicFloodProtNet.host[1].wlan[0].mac.dcf packetSentToPeerWithoutRetry:vector(packetBytes) ETV
attr interpolationmode none
attr source ieee80211NotRetry(packetSentToPeer)
attr title "packets sent: without retry, vector(packetBytes)"
vector 225 BasicFloodProtNet.host[1].wlan[0].mac.dcf.channelAccess.inProgressFrames queueingTime:vector ETV
attr interpolationmode none
attr source queueingTime(packetDequeued)
attr title "queueing times, vector"
vector 226 BasicFloodProtNet.host[17].wlan[0].mac packetReceivedFromLower:vector(packetBytes) ETV
attr interpolationmode none
attr title "packets received from lower layer, vector(packetBytes)"
vector 227 BasicFloodProtNet.host[17].wlan[0].mac.dcf packetReceivedFromPeer:vector(packetBytes) ETV
attr interpolationmode none
attr title "packets received, vector(packetBytes)"
vector 228 BasicFloodProtNet.host[17].wlan[0].mac.dcf packetReceivedFromPeerMulticast:vector(packetBytes) ETV
attr interpolationmode none
attr source ieee80211Multicast(packetReceivedFromPeer)
attr title "packets received: multicast, vector(packetBytes)"
vector 229 BasicFloodProtNet.host[17].wlan[0].mac.dcf packetReceivedFromPeerBroadcast:vector(packetBytes) ETV
attr interpolationmode none
attr source ieee80211Broadcast(packetReceivedFromPeer)
attr title "packets received: broadcast, vector(packetBytes)"
vector 230 BasicFloodProtNet.host[17].wlan[0].mac.dcf packetReceivedFromPeerWithoutRetry:vector(packetBytes) ETV
attr interpolationmode none
attr source ieee80211NotRetry(packetReceivedFromPeer)
attr title "packets received: without retry, vector(packetBytes)"
vector 231 BasicFloodProtNet.host[17].wlan[0].mac packetSentToUpper:vector(packetBytes) ETV
attr interpolationmode none
attr title "packets sent to upper layer, vector(packetBytes)"
vector 232 BasicFloodProtNet.host[17].udp packetReceived:vector(packetBytes) ETV
attr interpolationmode none
attr source packetReceived
attr title "packets received, vector(packetBytes)"
vector 233 BasicFloodProtNet.host[17].udp passedUpPk:vector(count) ETV
attr interpolationmode none
attr source packetSentToUpper
attr title "packets passed up, vector(count)"
vector 234 BasicFloodProtNet.host[17].app[0] packetReceived:vector(packetBytes) ETV
attr interpolationmode none
attr source packetReceived
attr title "packets received, vector(packetBytes)"
vector 235 BasicFloodProtNet.host[17].app[0] throughput:vector ETV
attr source throughput(packetReceived)
attr title "throughput, vector"
attr unit bps
vector 236 BasicFloodProtNet.host[17].app[0] rcvdPkLifetime:vector ETV
attr interpolationmode none
attr source dataAge(packetReceived)
attr title "received packet lifetime, vector"
attr unit s
vector 237 BasicFloodProtNet.host[35].wlan[0].mac packetReceivedFromLower:vector(packetBytes) ETV
attr interpolationmode none
attr title "packets received from lower layer, vector(packetBytes)"
vector 238 BasicFloodProtNet.host[35].wlan[0].mac.dcf packetReceivedFromPeer:vector(packetBytes) ETV
attr interpolationmode none
attr title "packets received, vector(packetBytes)"
vector 239 BasicFloodProtNet.host[35].wlan[0].mac.dcf packetReceivedFromPeerMulticast:vector(packetBytes) ETV
attr interpolationmode none
attr source ieee80211Multicast(packetReceivedFromPeer)
attr title "packets received: multicast, vector(packetBytes)"
vector 240 BasicFloodProtNet.host[35].wlan[0].mac.dcf packetReceivedFromPeerBroadcast:vector(packetBytes) ETV
attr interpolationmode none
attr source ieee80211Broadcast(packetReceivedFromPeer)
attr title "packets received: broadcast, vector(packetBytes)"
vector 241 BasicFloodProtNet.host[35].wlan[0].mac.dcf packetReceivedFromPeerWithoutRetry:vector(packetBytes) ETV
attr interpolationmode none
attr source ieee80211NotRetry(packetReceivedFromPeer)
attr title "packets received: without retry, vector(packetBytes)"
vector 242 BasicFloodProtNet.host[35].wlan[0].mac packetSentToUpper:vector(packetBytes) ETV
attr interpolationmode none
attr title "packets sent to upper layer, vector(packetBytes)"
vector 243 BasicFloodProtNet.host[35].udp packetReceived:vector(packetBytes) ETV
attr interpolationmode none
attr source packetReceived
attr title "packets received, vector(packetBytes)"
vector 244 BasicFloodProtNet.host[35].udp passedUpPk:vector(count) ETV
attr interpolationmode none
attr source packetSentToUpper
attr title "packets passed up, vector(count)"
vector 245 BasicFloodProtNet.host[35].app[0] packetReceived:vector(packetBytes) ETV
attr interpolationmode none
attr source packetReceived
attr title "packets received, vector(packetBytes)"
vector 246 BasicFloodProtNet.host[35].app[0] throughput:vector ETV
attr source throughput(packetReceived)
attr title "throughput, vector"
attr unit bps
vector 247 BasicFloodProtNet.host[35].app[0] rcvdPkLifetime:vector ETV
attr interpolationmode none
attr source dataAge(packetReceived)
attr title "received packet lifetime, vector"
attr unit s
vector 248 BasicFloodProtNet.host[44].wlan[0].mac packetReceivedFromLower:vector(packetBytes) ETV
attr interpolationmode none
attr title "packets received from lower layer, vector(packetBytes)"
vector 249 BasicFloodProtNet.host[44].wlan[0].mac.dcf packetReceivedFromPeer:vector(packetBytes) ETV
attr interpolationmode none
attr title "packets received, vector(packetBytes)"
vector 250 BasicFloodProtNet.host[44].wlan[0].mac.dcf packetReceivedFromPeerMulticast:vector(packetBytes) ETV
attr interpolationmode none
attr source ieee80211Multicast(packetReceivedFromPeer)
attr title "packets received: multicast, vector(packetBytes)"
vector 251 BasicFloodProtNet.host[44].wlan[0].mac.dcf packetReceivedFromPeerBroadcast:vector(packetBytes) ETV
attr interpolationmode none
attr source ieee80211Broadcast(packetReceivedFromPeer)
attr title "packets received: broadcast, vector(packetBytes)"
vector 252 BasicFloodProtNet.host[44].wlan[0].mac.dcf packetReceivedFromPeerWithoutRetry:vector(packetBytes) ETV
attr interpolationmode none
attr source ieee80211NotRetry(packetReceivedFromPeer)
attr title "packets received: without retry, vector(packetBytes)"
vector 253 BasicFloodProtNet.host[44].wlan[0].mac packetSentToUpper:vector(packetBytes) ETV
attr interpolationmode none
attr title "packets sent to upper layer, vector(packetBytes)"
vector 254 BasicFloodProtNet.host[44].udp packetReceived:vector(packetBytes) ETV
attr interpolationmode none
attr source packetReceived
attr title "packets received, vector(packetBytes)"
vector 255 BasicFloodProtNet.host[44].udp passedUpPk:vector(count) ETV
attr interpolationmode none
attr source packetSentToUpper
attr title "packets passed up, vector(count)"
vector 256 BasicFloodProtNet.host[44].app[0] packetReceived:vector(packetBytes) ETV
attr interpolationmode none
attr source packetReceived
attr title "packets received, vector(packetBytes)"
vector 257 BasicFloodProtNet.host[44].app[0] throughput:vector ETV
attr source throughput(packetReceived)
attr title "throughput, vector"
attr unit bps
vector 258 BasicFloodProtNet.host[44].app[0] rcvdPkLifetime:vector ETV
attr interpolationmode none
attr source dataAge(packetReceived)
attr title "received packet lifetime, vector"
attr unit s
vector 259 BasicFloodProtNet.host[5].wlan[0].mac packetReceivedFromLower:vector(packetBytes) ETV
attr interpolationmode none
attr title "packets received from lower layer, vector(packetBytes)"
vector 260 BasicFloodProtNet.host[5].wlan[0].mac.dcf packetReceivedFromPeer:vector(packetBytes) ETV
attr interpolationmode none
attr title "packets received, vector(packetBytes)"
vector 261 BasicFloodProtNet.host[5].wlan[0].mac.dcf packetReceivedFromPeerMulticast:vector(packetBytes) ETV
attr interpolationmode none
attr source ieee80211Multicast(packetReceivedFromPeer)
attr title "packets received: multicast, vector(packetBytes)"
vector 262 BasicFloodProtNet.host[5].wlan[0].mac.dcf packetReceivedFromPeerBroadcast:vector(packetBytes) ETV
attr interpolationmode none
attr source ieee80211Broadcast(packetReceivedFromPeer)
attr title "packets received: broadcast, vector(packetBytes)"
vector 263 BasicFloodProtNet.host[5].wlan[0].mac.dcf packetReceivedFromPeerWithoutRetry:vector(packetBytes) ETV
attr interpolationmode none
attr source ieee80211NotRetry(packetReceivedFromPeer)
attr title "packets received: without retry, vector(packetBytes)"
vector 264 BasicFloodProtNet.host[5].wlan[0].mac packetSentToUpper:vector(packetBytes) ETV
attr interpolationmode none
attr title "packets sent to upper layer, vector(packetBytes)"
vector 265 BasicFloodProtNet.host[5].udp packetReceived:vector(packetBytes) ETV
attr interpolationmode none
attr source packetReceived
attr title "packets received, vector(packetBytes)"
vector 266 BasicFloodProtNet.host[5].udp passedUpPk:vector(count) ETV
attr interpolationmode none
attr source packetSentToUpper
attr title "packets passed up, vector(count)"
vector 267 BasicFloodProtNet.host[5].app[0] packetReceived:vector(packetBytes) ETV
attr interpolationmode none
attr source packetReceived
attr title "packets received, vector(packetBytes)"
vector 268 BasicFloodProtNet.host[5].app[0] throughput:vector ETV
attr source throughput(packetReceived)
attr title "throughput, vector"
attr unit bps
vector 269 BasicFloodProtNet.host[5].app[0] rcvdPkLifetime:vector ETV
attr interpolationmode none
attr source dataAge(packetReceived)
attr title "received packet lifetime, vector"
attr unit s
vector 270 BasicFloodProtNet.host[43].wlan[0].mac packetReceivedFromLower:vector(packetBytes) ETV
attr interpolationmode none
attr title "packets received from lower layer, vector(packetBytes)"
vector 271 BasicFloodProtNet.host[43].wlan[0].mac.dcf packetReceivedFromPeer:vector(packetBytes) ETV
attr interpolationmode none
attr title "packets received, vector(packetBytes)"
vector 272 BasicFloodProtNet.host[43].wlan[0].mac.dcf packetReceivedFromPeerMulticast:vector(packetBytes) ETV
attr interpolationmode none
attr source ieee80211Multicast(packetReceivedFromPeer)
attr title "packets received: multicast, vector(packetBytes)"
vector 273 BasicFloodProtNet.host[43].wlan[0].mac.dcf packetReceivedFromPeerBroadcast:vector(packetBytes) ETV
attr interpolationmode none
attr source ieee80211Broadcast(packetReceivedFromPeer)
attr title "packets received: broadcast, vector(packetBytes)"
vector 274 BasicFloodProtNet.host[43].wlan[0].mac.dcf packetReceivedFromPeerWithoutRetry:vector(packetBytes) ETV
attr interpolationmode none
attr source ieee80211NotRetry(packetReceivedFromPeer)
attr title "packets received: without retry, vector(packetBytes)"
vector 275 BasicFloodProtNet.host[43].wlan[0].mac packetSentToUpper:vector(packetBytes) ETV
attr interpolationmode none
attr title "packets sent to upper layer, vector(packetBytes)"
vector 276 BasicFloodProtNet.host[43].udp packetReceived:vector(packetBytes) ETV
attr interpolationmode none
attr source packetReceived
attr title "packets received, vector(packetBytes)"
vector 277 BasicFloodProtNet.host[43].udp passedUpPk:vector(count) ETV
attr interpolationmode none
attr source packetSentToUpper
attr title "packets passed up, vector(count)"
vector 278 BasicFloodProtNet.host[43].app[0] packetReceived:vector(packetBytes) ETV
attr interpolationmode none
attr source packetReceived
attr title "packets received, vector(packetBytes)"
vector 279 BasicFloodProtNet.host[43].app[0] throughput:vector ETV
attr source throughput(packetReceived)
attr title "throughput, vector"
attr unit bps
vector 280 BasicFloodProtNet.host[43].app[0] rcvdPkLifetime:vector ETV
attr interpolationmode none
attr source dataAge(packetReceived)
attr title "received packet lifetime, vector"
attr unit s
vector 281 BasicFloodProtNet.host[47].wlan[0].mac packetReceivedFromLower:vector(packetBytes) ETV
attr interpolationmode none
attr title "packets received from lower layer, vector(packetBytes)"
vector 282 BasicFloodProtNet.host[47].wlan[0].mac.dcf packetReceivedFromPeer:vector(packetBytes) ETV
attr interpolationmode none
attr title "packets received, vector(packetBytes)"
vector 283 BasicFloodProtNet.host[47].wlan[0].mac.dcf packetReceivedFromPeerMulticast:vector(packetBytes) ETV
attr interpolationmode none
attr source ieee80211Multicast(packetReceivedFromPeer)
attr title "packets received: multicast, vector(packetBytes)"
vector 284 BasicFloodProtNet.host[47].wlan[0].mac.dcf packetReceivedFromPeerBroadcast:vector(packetBytes) ETV
attr interpolationmode none
attr source ieee80211Broadcast(packetReceivedFromPeer)
attr title "packets received: broadcast, vector(packetBytes)"
vector 285 BasicFloodProtNet.host[47].wlan[0].mac.dcf packetReceivedFromPeerWithoutRetry:vector(packetBytes) ETV
attr interpolationmode none
attr source ieee80211NotRetry(packetReceivedFromPeer)
attr title "packets received: without retry, vector(packetBytes)"
vector 286 BasicFloodProtNet.host[47].wlan[0].mac packetSentToUpper:vector(packetBytes) ETV
attr interpolationmode none
attr title "packets sent to upper layer, vector(packetBytes)"
vector 287 BasicFloodProtNet.host[47].udp packetReceived:vector(packetBytes) ETV
attr interpolationmode none
attr source packetReceived
attr title "packets received, vector(packetBytes)"
vector 288 BasicFloodProtNet.host[47].udp passedUpPk:vector(count) ETV
attr interpolationmode none
attr source packetSentToUpper
attr title "packets passed up, vector(count)"
vector 289 BasicFloodProtNet.host[47].app[0] packetReceived:vector(packetBytes) ETV
attr interpolationmode none
attr source packetReceived
attr title "packets received, vector(packetBytes)"
vector 290 BasicFloodProtNet.host[47].app[0] throughput:vector ETV
attr source throughput(packetReceived)
attr title "throughput, vector"
attr unit bps
vector 291 BasicFloodProtNet.host[47].app[0] rcvdPkLifetime:vector ETV
attr interpolationmode none
attr source dataAge(packetReceived)
attr title "received packet lifetime, vector"
attr unit s
vector 292 BasicFloodProtNet.host[33].wlan[0].mac packetReceivedFromLower:vector(packetBytes) ETV
attr interpolationmode none
attr title "packets received from lower layer, vector(packetBytes)"
vector 293 BasicFloodProtNet.host[33].wlan[0].mac.dcf packetReceivedFromPeer:vector(packetBytes) ETV
attr interpolationmode none
attr title "packets received, vector(packetBytes)"
vector 294 BasicFloodProtNet.host[33].wlan[0].mac.dcf packetReceivedFromPeerMulticast:vector(packetBytes) ETV
attr interpolationmode none
attr source ieee80211Multicast(packetReceivedFromPeer)
attr title "packets received: multicast, vector(packetBytes)"
vector 295 BasicFloodProtNet.host[33].wlan[0].mac.dcf packetReceivedFromPeerBroadcast:vector(packetBytes) ETV
attr interpolationmode none
attr source ieee80211Broadcast(packetReceivedFromPeer)
attr title "packets received: broadcast, vector(packetBytes)"
vector 296 BasicFloodProtNet.host[33].wlan[0].mac.dcf packetReceivedFromPeerWithoutRetry:vector(packetBytes) ETV
attr interpolationmode none
attr source ieee80211NotRetry(packetReceivedFromPeer)
attr title "packets received: without retry, vector(packetBytes)"
vector 297 BasicFloodProtNet.host[33].wlan[0].mac packetSentToUpper:vector(packetBytes) ETV
attr interpolationmode none
attr title "packets sent to upper layer, vector(packetBytes)"
vector 298 BasicFloodProtNet.host[33].udp packetReceived:vector(packetBytes) ETV
attr interpolationmode none
attr source packetReceived
attr title "packets received, vector(packetBytes)"
vector 299 BasicFloodProtNet.host[33].udp passedUpPk:vector(count) ETV
attr interpolationmode none
attr source packetSentToUpper
attr title "packets passed up, vector(count)"
vector 300 BasicFloodProtNet.host[33].app[0] packetReceived:vector(packetBytes) ETV
attr interpolationmode none
attr source packetReceived
attr title "packets received, vector(packetBytes)"
vector 301 BasicFloodProtNet.host[33].app[0] throughput:vector ETV
attr source throughput(packetReceived)
attr title "throughput, vector"
attr unit bps
vector 302 BasicFloodProtNet.host[33].app[0] rcvdPkLifetime:vector ETV
attr interpolationmode none
attr source dataAge(packetReceived)
attr title "received packet lifetime, vector"
attr unit s
vector 303 BasicFloodProtNet.host[22].wlan[0].mac packetReceivedFromLower:vector(packetBytes) ETV
attr interpolationmode none
attr title "packets received from lower layer, vector(packetBytes)"
vector 304 BasicFloodProtNet.host[22].wlan[0].mac.dcf packetReceivedFromPeer:vector(packetBytes) ETV
attr interpolationmode none
attr title "packets received, vector(packetBytes)"
vector 305 BasicFloodProtNet.host[22].wlan[0].mac.dcf packetReceivedFromPeerMulticast:vector(packetBytes) ETV
attr interpolationmode none
attr source ieee80211Multicast(packetReceivedFromPeer)
attr title "packets received: multicast, vector(packetBytes)"
vector 306 BasicFloodProtNet.host[22].wlan[0].mac.dcf packetReceivedFromPeerBroadcast:vector(packetBytes) ETV
attr interpolationmode none
attr source ieee80211Broadcast(packetReceivedFromPeer)
attr title "packets received: broadcast, vector(packetBytes)"
vector 307 BasicFloodProtNet.host[22].wlan[0].mac.dcf packetReceivedFromPeerWithoutRetry:vector(packetBytes) ETV
attr interpolationmode none
attr source ieee80211NotRetry(packetReceivedFromPeer)
attr title "packets received: without retry, vector(packetBytes)"
vector 308 BasicFloodProtNet.host[22].wlan[0].mac packetSentToUpper:vector(packetBytes) ETV
attr interpolationmode none
attr title "packets sent to upper layer, vector(packetBytes)"
vector 309 BasicFloodProtNet.host[22].udp packetReceived:vector(packetBytes) ETV
attr interpolationmode none
attr source packetReceived
attr title "packets received, vector(packetBytes)"
vector 310 BasicFloodProtNet.host[22].udp passedUpPk:vector(count) ETV
attr interpolationmode none
attr source packetSentToUpper
attr title "packets passed up, vector(count)"
vector 311 BasicFloodProtNet.host[22].app[0] packetReceived:vector(packetBytes) ETV
attr interpolationmode none
attr source packetReceived
attr title "packets received, vector(packetBytes)"
vector 312 BasicFloodProtNet.host[22].app[0] throughput:vector ETV
attr source throughput(packetReceived)
attr title "throughput, vector"
attr unit bps
vector 313 BasicFloodProtNet.host[22].app[0] rcvdPkLifetime:vector ETV
attr interpolationmode none
attr source dataAge(packetReceived)
attr title "received packet lifetime, vector"
attr unit s
vector 314 BasicFloodProtNet.host[26].wlan[0].mac packetReceivedFromLower:vector(packetBytes) ETV
attr interpolationmode none
attr title "packets received from lower layer, vector(packetBytes)"
vector 315 BasicFloodProtNet.host[26].wlan[0].mac.dcf packetReceivedFromPeer:vector(packetBytes) ETV
attr interpolationmode none
attr title "packets received, vector(packetBytes)"
vector 316 BasicFloodProtNet.host[26].wlan[0].mac.dcf packetReceivedFromPeerMulticast:vector(packetBytes) ETV
attr interpolationmode none
attr source ieee80211Multicast(packetReceivedFromPeer)
attr title "packets received: multicast, vector(packetBytes)"
vector 317 BasicFloodProtNet.host[26].wlan[0].mac.dcf packetReceivedFromPeerBroadcast:vector(packetBytes) ETV
attr interpolationmode none
attr source ieee80211Broadcast(packetReceivedFromPeer)
attr title "packets received: broadcast, vector(packetBytes)"
vector 318 BasicFloodProtNet.host[26].wlan[0].mac.dcf packetReceivedFromPeerWithoutRetry:vector(packetBytes) ETV
attr interpolationmode none
attr source ieee80211NotRetry(packetReceivedFromPeer)
attr title "packets received: without retry, vector(packetBytes)"
vector 319 BasicFloodProtNet.host[26].wlan[0].mac packetSentToUpper:vector(packetBytes) ETV
attr interpolationmode none
attr title "packets sent to upper layer, vector(packetBytes)"
vector 320 BasicFloodProtNet.host[26].udp packetReceived:vector(packetBytes) ETV
attr interpolationmode none
attr source packetReceived
attr title "packets received, vector(packetBytes)"
vector 321 BasicFloodProtNet.host[26].udp passedUpPk:vector(count) ETV
attr interpolationmode none
attr source packetSentToUpper
attr title "packets passed up, vector(count)"
vector 322 BasicFloodProtNet.host[26].app[0] packetReceived:vector(packetBytes) ETV
attr interpolationmode none
attr source packetReceived
attr title "packets received, vector(packetBytes)"
vector 323 BasicFloodProtNet.host[26].app[0] throughput:vector ETV
attr source throughput(packetReceived)
attr title "throughput, vector"
attr unit bps
vector 324 BasicFloodProtNet.host[26].app[0] rcvdPkLifetime:vector ETV
attr interpolationmode none
attr source dataAge(packetReceived)
attr title "received packet lifetime, vector"
attr unit s
vector 325 BasicFloodProtNet.host[41].wlan[0].mac packetReceivedFromLower:vector(packetBytes) ETV
attr interpolationmode none
attr title "packets received from lower layer, vector(packetBytes)"
vector 326 BasicFloodProtNet.host[41].wlan[0].mac.dcf packetReceivedFromPeer:vector(packetBytes) ETV
attr interpolationmode none
attr title "packets received, vector(packetBytes)"
vector 327 BasicFloodProtNet.host[41].wlan[0].mac.dcf packetReceivedFromPeerMulticast:vector(packetBytes) ETV
attr interpolationmode none
attr source ieee80211Multicast(packetReceivedFromPeer)
attr title "packets received: multicast, vector(packetBytes)"
vector 328 BasicFloodProtNet.host[41].wlan[0].mac.dcf packetReceivedFromPeerBroadcast:vector(packetBytes) ETV
attr interpolationmode none
attr source ieee80211Broadcast(packetReceivedFromPeer)
attr title "packets received: broadcast, vector(packetBytes)"
vector 329 BasicFloodProtNet.host[41].wlan[0].mac.dcf packetReceivedFromPeerWithoutRetry:vector(packetBytes) ETV
attr interpolationmode none
attr source ieee80211NotRetry(packetReceivedFromPeer)
attr title "packets received: without retry, vector(packetBytes)"
vector 330 BasicFloodProtNet.host[41].wlan[0].mac packetSentToUpper:vector(packetBytes) ETV
attr interpolationmode none
attr title "packets sent to upper layer, vector(packetBytes)"
vector 331 BasicFloodProtNet.host[41].udp packetReceived:vector(packetBytes) ETV
attr interpolationmode none
attr source packetReceived
attr title "packets received, vector(packetBytes)"
vector 332 BasicFloodProtNet.host[41].udp passedUpPk:vector(count) ETV
attr interpolationmode none
attr source packetSentToUpper
attr title "packets passed up, vector(count)"
vector 333 BasicFloodProtNet.host[41].app[0] packetReceived:vector(packetBytes) ETV
attr interpolationmode none
attr source packetReceived
attr title "packets received, vector(packetBytes)"
vector 334 BasicFloodProtNet.host[41].app[0] throughput:vector ETV
attr source throughput(packetReceived)
attr title "throughput, vector"
attr unit bps
vector 335 BasicFloodProtNet.host[41].app[0] rcvdPkLifetime:vector ETV
attr interpolationmode none
attr source dataAge(packetReceived)
attr title "received packet lifetime, vector"
attr unit s
vector 336 BasicFloodProtNet.host[25].wlan[0].mac packetReceivedFromLower:vector(packetBytes) ETV
attr interpolationmode none
attr title "packets received from lower layer, vector(packetBytes)"
vector 337 BasicFloodProtNet.host[25].wlan[0].mac.dcf packetReceivedFromPeer:vector(packetBytes) ETV
attr interpolationmode none
attr title "packets received, vector(packetBytes)"
vector 338 BasicFloodProtNet.host[25].wlan[0].mac.dcf packetReceivedFromPeerMulticast:vector(packetBytes) ETV
attr interpolationmode none
attr source ieee80211Multicast(packetReceivedFromPeer)
attr title "packets received: multicast, vector(packetBytes)"
vector 339 BasicFloodProtNet.host[25].wlan[0].mac.dcf packetReceivedFromPeerBroadcast:vector(packetBytes) ETV
attr interpolationmode none
attr source ieee80211Broadcast(packetReceivedFromPeer)
attr title "packets received: broadcast, vector(packetBytes)"
vector 340 BasicFloodProtNet.host[25].wlan[0].mac.dcf packetReceivedFromPeerWithoutRetry:vector(packetBytes) ETV
attr interpolationmode none
attr source ieee80211NotRetry(packetReceivedFromPeer)
attr title "packets received: without retry, vector(packetBytes)"
vector 341 BasicFloodProtNet.host[25].wlan[0].mac packetSentToUpper:vector(packetBytes) ETV
attr interpolationmode none
attr title "packets sent to upper layer, vector(packetBytes)"
vector 342 BasicFloodProtNet.host[25].udp packetReceived:vector(packetBytes) ETV
attr interpolationmode none
attr source packetReceived
attr title "packets received, vector(packetBytes)"
vector 343 BasicFloodProtNet.host[25].udp passedUpPk:vector(count) ETV
attr interpolationmode none
attr source packetSentToUpper
attr title "packets passed up, vector(count)"
vector 344 BasicFloodProtNet.host[25].app[0] packetReceived:vector(packetBytes) ETV
attr interpolationmode none
attr source packetReceived
attr title "packets received, vector(packetBytes)"
vector 345 BasicFloodProtNet.host[25].app[0] throughput:vector ETV
attr source throughput(packetReceived)
attr title "throughput, vector"
attr unit bps
vector 346 BasicFloodProtNet.host[25].app[0] rcvdPkLifetime:vector ETV
attr interpolationmode none
attr source dataAge(packetReceived)
attr title "received packet lifetime, vector"
attr unit s
vector 347 BasicFloodProtNet.host[37].wlan[0].mac packetReceivedFromLower:vector(packetBytes) ETV
attr interpolationmode none
attr title "packets received from lower layer, vector(packetBytes)"
vector 348 BasicFloodProtNet.host[37].wlan[0].mac.dcf packetReceivedFromPeer:vector(packetBytes) ETV
attr interpolationmode none
attr title "packets received, vector(packetBytes)"
vector 349 BasicFloodProtNet.host[37].wlan[0].mac.dcf packetReceivedFromPeerMulticast:vector(packetBytes) ETV
attr interpolationmode none
attr source ieee80211Multicast(packetReceivedFromPeer)
attr title "packets received: multicast, vector(packetBytes)"
vector 350 BasicFloodProtNet.host[37].wlan[0].mac.dcf packetReceivedFromPeerBroadcast:vector(packetBytes) ETV
attr interpolationmode none
attr source ieee80211Broadcast(packetReceivedFromPeer)
attr title "packets received: broadcast, vector(packetBytes)"
vector 351 BasicFloodProtNet.host[37].wlan[0].mac.dcf packetReceivedFromPeerWithoutRetry:vector(packetBytes) ETV
attr interpolationmode none
attr source ieee80211NotRetry(packetReceivedFromPeer)
attr title "packets received: without retry, vector(packetBytes)"
vector 352 BasicFloodProtNet.host[37].wlan[0].mac packetSentToUpper:vector(packetBytes) ETV
attr interpolationmode none
attr title "packets sent to upper layer, vector(packetBytes)"
vector 353 BasicFloodProtNet.host[37].udp packetReceived:vector(packetBytes) ETV
attr interpolationmode none
attr source packetReceived
attr title "packets received, vector(packetBytes)"
vector 354 BasicFloodProtNet.host[37].udp passedUpPk:vector(count) ETV
attr interpolationmode none
attr source packetSentToUpper
attr title "packets passed up, vector(count)"
vector 355 BasicFloodProtNet.host[37].app[0] packetReceived:vector(packetBytes) ETV
attr interpolationmode none
attr source packetReceived
attr title "packets received, vector(packetBytes)"
vector 356 BasicFloodProtNet.host[37].app[0] throughput:vector ETV
attr source throughput(packetReceived)
attr title "throughput, vector"
attr unit bps
vector 357 BasicFloodProtNet.host[37].app[0] rcvdPkLifetime:vector ETV
attr interpolationmode none
attr source dataAge(packetReceived)
attr title "received packet lifetime, vector"
attr unit s
vector 358 BasicFloodProtNet.host[14].wlan[0].mac packetReceivedFromLower:vector(packetBytes) ETV
attr interpolationmode none
attr title "packets received from lower layer, vector(packetBytes)"
vector 359 BasicFloodProtNet.host[14].wlan[0].mac.dcf packetReceivedFromPeer:vector(packetBytes) ETV
attr interpolationmode none
attr title "packets received, vector(packetBytes)"
vector 360 BasicFloodProtNet.host[14].wlan[0].mac.dcf packetReceivedFromPeerMulticast:vector(packetBytes) ETV
attr interpolationmode none
attr source ieee80211Multicast(packetReceivedFromPeer)
attr title "packets received: multicast, vector(packetBytes)"
vector 361 BasicFloodProtNet.host[14].wlan[0].mac.dcf packetReceivedFromPeerBroadcast:vector(packetBytes) ETV
attr interpolationmode none
attr source ieee80211Broadcast(packetReceivedFromPeer)
attr title "packets received: broadcast, vector(packetBytes)"
vector 362 BasicFloodProtNet.host[14].wlan[0].mac.dcf packetReceivedFromPeerWithoutRetry:vector(packetBytes) ETV
attr interpolationmode none
attr source ieee80211NotRetry(packetReceivedFromPeer)
attr title "packets received: without retry, vector(packetBytes)"
vector 363 BasicFloodProtNet.host[14].wlan[0].mac packetSentToUpper:vector(packetBytes) ETV
attr interpolationmode none
attr title "packets sent to upper layer, vector(packetBytes)"
vector 364 BasicFloodProtNet.host[14].udp packetReceived:vector(packetBytes) ETV
attr interpolationmode none
attr source packetReceived
attr title "packets received, vector(packetBytes)"
vector 365 BasicFloodProtNet.host[14].udp passedUpPk:vector(count) ETV
attr interpolationmode none
attr source packetSentToUpper
attr title "packets passed up, vector(count)"
vector 366 BasicFloodProtNet.host[14].app[0] packetReceived:vector(packetBytes) ETV
attr interpolationmode none
attr source packetReceived
attr title "packets received, vector(packetBytes)"
vector 367 BasicFloodProtNet.host[14].app[0] throughput:vector ETV
attr source throughput(packetReceived)
attr title "throughput, vector"
attr unit bps
vector 368 BasicFloodProtNet.host[14].app[0] rcvdPkLifetime:vector ETV
attr interpolationmode none
attr source dataAge(packetReceived)
attr title "received packet lifetime, vector"
attr unit s
vector 369 BasicFloodProtNet.host[13].wlan[0].mac packetReceivedFromLower:vector(packetBytes) ETV
attr interpolationmode none
attr title "packets received from lower layer, vector(packetBytes)"
vector 370 BasicFloodProtNet.host[13].wlan[0].mac.dcf packetReceivedFromPeer:vector(packetBytes) ETV
attr interpolationmode none
attr title "packets received, vector(packetBytes)"
vector 371 BasicFloodProtNet.host[13].wlan[0].mac.dcf packetReceivedFromPeerMulticast:vector(packetBytes) ETV
attr interpolationmode none
attr source ieee80211Multicast(packetReceivedFromPeer)
attr title "packets received: multicast, vector(packetBytes)"
vector 372 BasicFloodProtNet.host[13].wlan[0].mac.dcf packetReceivedFromPeerBroadcast:vector(packetBytes) ETV
attr interpolationmode none
attr source ieee80211Broadcast(packetReceivedFromPeer)
attr title "packets received: broadcast, vector(packetBytes)"
vector 373 BasicFloodProtNet.host[13].wlan[0].mac.dcf packetReceivedFromPeerWithoutRetry:vector(packetBytes) ETV
attr interpolationmode none
attr source ieee80211NotRetry(packetReceivedFromPeer)
attr title "packets received: without retry, vector(packetBytes)"
vector 374 BasicFloodProtNet.host[13].wlan[0].mac packetSentToUpper:vector(packetBytes) ETV
attr interpolationmode none
attr title "packets sent to upper layer, vector(packetBytes)"
vector 375 BasicFloodProtNet.host[13].udp packetReceived:vector(packetBytes) ETV
attr interpolationmode none
attr source packetReceived
attr title "packets received, vector(packetBytes)"
vector 376 BasicFloodProtNet.host[13].udp passedUpPk:vector(count) ETV
attr interpolationmode none
attr source packetSentToUpper
attr title "packets passed up, vector(count)"
vector 377 BasicFloodProtNet.host[13].app[0] packetReceived:vector(packetBytes) ETV
attr interpolationmode none
attr source packetReceived
attr title "packets received, vector(packetBytes)"
vector 378 BasicFloodProtNet.host[13].app[0] throughput:vector ETV
attr source throughput(packetReceived)
attr title "throughput, vector"
attr unit bps
vector 379 BasicFloodProtNet.host[13].app[0] rcvdPkLifetime:vector ETV
attr interpolationmode none
attr source dataAge(packetReceived)
attr title "received packet lifetime, vector"
attr unit s
vector 380 BasicFloodProtNet.host[27].wlan[0].mac packetReceivedFromLower:vector(packetBytes) ETV
attr interpolationmode none
attr title "packets received from lower layer, vector(packetBytes)"
vector 381 BasicFloodProtNet.host[27].wlan[0].mac.dcf packetReceivedFromPeer:vector(packetBytes) ETV
attr interpolationmode none
attr title "packets received, vector(packetBytes)"
vector 382 BasicFloodProtNet.host[27].wlan[0].mac.dcf packetReceivedFromPeerMulticast:vector(packetBytes) ETV
attr interpolationmode none
attr source ieee80211Multicast(packetReceivedFromPeer)
attr title "packets received: multicast, vector(packetBytes)"
vector 383 BasicFloodProtNet.host[27].wlan[0].mac.dcf packetReceivedFromPeerBroadcast:vector(packetBytes) ETV
attr interpolationmode none
attr source ieee80211Broadcast(packetReceivedFromPeer)
attr title "packets received: broadcast, vector(packetBytes)"
vector 384 BasicFloodProtNet.host[27].wlan[0].mac.dcf packetReceivedFromPeerWithoutRetry:vector(packetBytes) ETV
attr interpolationmode none
attr source ieee80211NotRetry(packetReceivedFromPeer)
attr title "packets received: without retry, vector(packetBytes)"
vector 385 BasicFloodProtNet.host[27].wlan[0].mac packetSentToUpper:vector(packetBytes) ETV
attr interpolationmode none
attr title "packets sent to upper layer, vector(packetBytes)"
vector 386 BasicFloodProtNet.host[27].udp packetReceived:vector(packetBytes) ETV
attr interpolationmode none
attr source packetReceived
attr title "packets received, vector(packetBytes)"
vector 387 BasicFloodProtNet.host[27].udp passedUpPk:vector(count) ETV
attr interpolationmode none
attr source packetSentToUpper
attr title "packets passed up, vector(count)"
vector 388 BasicFloodProtNet.host[27].app[0] packetReceived:vector(packetBytes) ETV
attr interpolationmode none
attr source packetReceived
attr title "packets received, vector(packetBytes)"
vector 389 BasicFloodProtNet.host[27].app[0] throughput:vector ETV
attr source throughput(packetReceived)
attr title "throughput, vector"
attr unit bps
vector 390 BasicFloodProtNet.host[27].app[0] rcvdPkLifetime:vector ETV
attr interpolationmode none
attr source dataAge(packetReceived)
attr title "received packet lifetime, vector"
attr unit s
vector 391 BasicFloodProtNet.host[30].wlan[0].mac packetReceivedFromLower:vector(packetBytes) ETV
attr interpolationmode none
attr title "packets received from lower layer, vector(packetBytes)"
vector 392 BasicFloodProtNet.host[30].wlan[0].mac.dcf packetReceivedFromPeer:vector(packetBytes) ETV
attr interpolationmode none
attr title "packets received, vector(packetBytes)"
vector 393 BasicFloodProtNet.host[30].wlan[0].mac.dcf packetReceivedFromPeerMulticast:vector(packetBytes) ETV
attr interpolationmode none
attr source ieee80211Multicast(packetReceivedFromPeer)
attr title "packets received: multicast, vector(packetBytes)"
vector 394 BasicFloodProtNet.host[30].wlan[0].mac.dcf packetReceivedFromPeerBroadcast:vector(packetBytes) ETV
attr interpolationmode none
attr source ieee80211Broadcast(packetReceivedFromPeer)
attr title "packets received: broadcast, vector(packetBytes)"
vector 395 BasicFloodProtNet.host[30].wlan[0].mac.dcf packetReceivedFromPeerWithoutRetry:vector(packetBytes) ETV
attr interpolationmode none
attr source ieee80211NotRetry(packetReceivedFromPeer)
attr title "packets received: without retry, vector(packetBytes)"
vector 396 BasicFloodProtNet.host[30].wlan[0].mac packetSentToUpper:vector(packetBytes) ETV
attr interpolationmode none
attr title "packets sent to upper layer, vector(packetBytes)"
vector 397 BasicFloodProtNet.host[30].udp packetReceived:vector(packetBytes) ETV
attr interpolationmode none
attr source packetReceived
attr title "packets received, vector(packetBytes)"
vector 398 BasicFloodProtNet.host[30].udp passedUpPk:vector(count) ETV
attr interpolationmode none
attr source packetSentToUpper
attr title "packets passed up, vector(count)"
vector 399 BasicFloodProtNet.host[30].app[0] packetReceived:vector(packetBytes) ETV
attr interpolationmode none
attr source packetReceived
attr title "packets received, vector(packetBytes)"
vector 400 BasicFloodProtNet.host[30].app[0] throughput:vector ETV
attr source throughput(packetReceived)
attr title "throughput, vector"
attr unit bps
vector 401 BasicFloodProtNet.host[30].app[0] rcvdPkLifetime:vector ETV
attr interpolationmode none
attr source dataAge(packetReceived)
attr title "received packet lifetime, vector"
attr unit s
vector 402 BasicFloodProtNet.host[24].wlan[0].mac packetReceivedFromLower:vector(packetBytes) ETV
attr interpolationmode none
attr title "packets received from lower layer, vector(packetBytes)"
vector 403 BasicFloodProtNet.host[24].wlan[0].mac.dcf packetReceivedFromPeer:vector(packetBytes) ETV
attr interpolationmode none
attr title "packets received, vector(packetBytes)"
vector 404 BasicFloodProtNet.host[24].wlan[0].mac.dcf packetReceivedFromPeerMulticast:vector(packetBytes) ETV
attr interpolationmode none
attr source ieee80211Multicast(packetReceivedFromPeer)
attr title "packets received: multicast, vector(packetBytes)"
vector 405 BasicFloodProtNet.host[24].wlan[0].mac.dcf packetReceivedFromPeerBroadcast:vector(packetBytes) ETV
attr interpolationmode none
attr source ieee80211Broadcast(packetReceivedFromPeer)
attr title "packets received: broadcast, vector(packetBytes)"
vector 406 BasicFloodProtNet.host[24].wlan[0].mac.dcf packetReceivedFromPeerWithoutRetry:vector(packetBytes) ETV
attr interpolationmode none
attr source ieee80211NotRetry(packetReceivedFromPeer)
attr title "packets received: without retry, vector(packetBytes)"
vector 407 BasicFloodProtNet.host[24].wlan[0].mac packetSentToUpper:vector(packetBytes) ETV
attr interpolationmode none
attr title "packets sent to upper layer, vector(packetBytes)"
vector 408 BasicFloodProtNet.host[24].udp packetReceived:vector(packetBytes) ETV
attr interpolationmode none
attr source packetReceived
attr title "packets received, vector(packetBytes)"
vector 409 BasicFloodProtNet.host[24].udp passedUpPk:vector(count) ETV
attr interpolationmode none
attr source packetSentToUpper
attr title "packets passed up, vector(count)"
vector 410 BasicFloodProtNet.host[24].app[0] packetReceived:vector(packetBytes) ETV
attr interpolationmode none
attr source packetReceived
attr title "packets received, vector(packetBytes)"
vector 411 BasicFloodProtNet.host[24].app[0] throughput:vector ETV
attr source throughput(packetReceived)
attr title "throughput, vector"
attr unit bps
vector 412 BasicFloodProtNet.host[24].app[0] rcvdPkLifetime:vector ETV
attr interpolationmode none
attr source dataAge(packetReceived)
[...]
1520	1219622 56 12665 12717 2.026367511035 2.027615511035 2 0 1 1 1
1521	1219678 112 12666 12718 2.026367511035 2.027615511035 4 0 2 4 6
1522	1219790 30 12717 12717 2.027615511035 2.027615511035 1 264 264 264 69696
1523	1219820 30 12717 12717 2.027615511035 2.027615511035 1 264 264 264 69696
1524	1219850 30 12717 12717 2.027615511035 2.027615511035 1 264 264 264 69696
1525	1219880 30 12717 12717 2.027615511035 2.027615511035 1 264 264 264 69696
1526	1219910 35 12717 12717 2.027615511035 2.027615511035 1 0.001248 0.001248 0.001248 1.557504e-06
1527	1219945 30 13014 13014 2.032691907403 2.032691907403 1 200 200 200 40000
1528	1219975 30 13015 13015 2.032691907403 2.032691907403 1 208 208 208 43264
1529	1220005 30 13017 13017 2.032691907403 2.032691907403 1 228 228 228 51984
1530	1220035 30 13017 13017 2.032691907403 2.032691907403 1 228 228 228 51984
1531	1220065 30 13020 13020 2.032691907403 2.032691907403 1 236 236 236 55696
1532	1220095 30 13020 13020 2.032691907403 2.032691907403 1 264 264 264 69696
1533	1220125 56 13020 13024 2.032691907403 2.032691907403 2 0 1 1 1
1534	1220181 28 13020 13020 2.032691907403 2.032691907403 1 2 2 2 4
1535	1220209 56 13020 13023 2.032691907403 2.032691907403 2 0 1 1 1
1536	1220265 30 13024 13024 2.032691907403 2.032691907403 1 264 264 264 69696
1537	1220295 28 13024 13024 2.032691907403 2.032691907403 1 0 0 0 0
1538	1220323 56 13024 13076 2.032691907403 2.033939907403 2 0 1 1 1
1539	1220379 34 13024 13024 2.032691907403 2.032691907403 1 2000000 2000000 2000000 4000000000000
1540	1220413 30 13024 13024 2.032691907403 2.032691907403 1 264 264 264 69696
1541	1220443 56 13024 13076 2.032691907403 2.033939907403 2 0 1 1 1
1542	1220499 112 13025 13077 2.032691907403 2.033939907403 4 0 2 4 6
1543	1220611 30 13076 13076 2.033939907403 2.033939907403 1 264 264 264 69696
1544	1220641 30 13076 13076 2.033939907403 2.033939907403 1 264 264 264 69696
1545	1220671 30 13076 13076 2.033939907403 2.033939907403 1 264 264 264 69696
1546	1220701 30 13076 13076 2.033939907403 2.033939907403 1 264 264 264 69696
1547	1220731 35 13076 13076 2.033939907403 2.033939907403 1 0.001248 0.001248 0.001248 1.557504e-06
1548	1220766 30 13369 13369 2.048406516492 2.048406516492 1 200 200 200 40000
1549	1220796 30 13370 13370 2.048406516492 2.048406516492 1 208 208 208 43264
1550	1220826 30 13372 13372 2.048406516492 2.048406516492 1 228 228 228 51984
1551	1220856 30 13372 13372 2.048406516492 2.048406516492 1 228 228 228 51984
1552	1220886 30 13375 13375 2.048406516492 2.048406516492 1 236 236 236 55696
1553	1220916 30 13375 13375 2.048406516492 2.048406516492 1 264 264 264 69696
1554	1220946 56 13375 13379 2.048406516492 2.048406516492 2 0 1 1 1
1555	1221002 28 13375 13375 2.048406516492 2.048406516492 1 4 4 4 16
1556	1221030 56 13375 13378 2.048406516492 2.048406516492 2 0 1 1 1
1557	1221086 30 13379 13379 2.048406516492 2.048406516492 1 264 264 264 69696
1558	1221116 28 13379 13379 2.048406516492 2.048406516492 1 0 0 0 0
1559	1221144 56 13379 13431 2.048406516492 2.049654516492 2 0 1 1 1
1560	1221200 34 13379 13379 2.048406516492 2.048406516492 1 2000000 2000000 2000000 4000000000000
1561	1221234 30 13379 13379 2.048406516492 2.048406516492 1 264 264 264 69696
1562	1221264 56 13379 13431 2.048406516492 2.049654516492 2 0 1 1 1
1563	1221320 112 13380 13432 2.048406516492 2.049654516492 4 0 2 4 6
1564	1221432 30 13431 13431 2.049654516492 2.049654516492 1 264 264 264 69696
1565	1221462 30 13431 13431 2.049654516492 2.049654516492 1 264 264 264 69696
1566	1221492 30 13431 13431 2.049654516492 2.049654516492 1 264 264 264 69696
1567	1221522 30 13431 13431 2.049654516492 2.049654516492 1 264 264 264 69696
1568	1221552 35 13431 13431 2.049654516492 2.049654516492 1 0.001248 0.001248 0.001248 1.557504e-06
1569	1221587 30 13727 13727 2.057085336244 2.057085336244 1 200 200 200 40000
1570	1221617 30 13728 13728 2.057085336244 2.057085336244 1 208 208 208 43264
1571	1221647 30 13730 13730 2.057085336244 2.057085336244 1 228 228 228 51984
1572	1221677 30 13730 13730 2.057085336244 2.057085336244 1 228 228 228 51984
1573	1221707 30 13733 13733 2.057085336244 2.057085336244 1 236 236 236 55696
1574	1221737 30 13733 13733 2.057085336244 2.057085336244 1 264 264 264 69696
1575	1221767 56 13733 13737 2.057085336244 2.057085336244 2 0 1 1 1
1576	1221823 28 13733 13733 2.057085336244 2.057085336244 1 2 2 2 4
1577	1221851 56 13733 13736 2.057085336244 2.057085336244 2 0 1 1 1
1578	1221907 30 13737 13737 2.057085336244 2.057085336244 1 264 264 264 69696
1579	1221937 28 13737 13737 2.057085336244 2.057085336244 1 0 0 0 0
1580	1221965 56 13737 13789 2.057085336244 2.058333336244 2 0 1 1 1
1581	1222021 34 13737 13737 2.057085336244 2.057085336244 1 2000000 2000000 2000000 4000000000000
1582	1222055 30 13737 13737 2.057085336244 2.057085336244 1 264 264 264 69696
1583	1222085 56 13737 13789 2.057085336244 2.058333336244 2 0 1 1 1
1584	1222141 112 13738 13790 2.057085336244 2.058333336244 4 0 2 4 6
1585	1222253 30 13789 13789 2.058333336244 2.058333336244 1 264 264 264 69696
1586	1222283 30 13789 13789 2.058333336244 2.058333336244 1 264 264 264 69696
1587	1222313 30 13789 13789 2.058333336244 2.058333336244 1 264 264 264 69696
1588	1222343 30 13789 13789 2.058333336244 2.058333336244 1 264 264 264 69696
1589	1222373 35 13789 13789 2.058333336244 2.058333336244 1 0.001248 0.001248 0.001248 1.557504e-06
1590	1222408 30 14086 14086 2.063332710112 2.063332710112 1 200 200 200 40000
1591	1222438 30 14087 14087 2.063332710112 2.063332710112 1 208 208 208 43264
1592	1222468 30 14089 14089 2.063332710112 2.063332710112 1 228 228 228 51984
1593	1222498 30 14089 14089 2.063332710112 2.063332710112 1 228 228 228 51984
1594	1222528 30 14092 14092 2.063332710112 2.063332710112 1 236 236 236 55696
1595	1222558 30 14092 14092 2.063332710112 2.063332710112 1 264 264 264 69696
1596	1222588 56 14092 14096 2.063332710112 2.063332710112 2 0 1 1 1
1597	1222644 28 14092 14092 2.063332710112 2.063332710112 1 0 0 0 0
1598	1222672 56 14092 14095 2.063332710112 2.063332710112 2 0 1 1 1
1599	1222728 30 14096 14096 2.063332710112 2.063332710112 1 264 264 264 69696
1600	1222758 28 14096 14096 2.063332710112 2.063332710112 1 0 0 0 0
1601	1222786 56 14096 14148 2.063332710112 2.064580710112 2 0 1 1 1
1602	1222842 34 14096 14096 2.063332710112 2.063332710112 1 2000000 2000000 2000000 4000000000000
1603	1222876 30 14096 14096 2.063332710112 2.063332710112 1 264 264 264 69696
1604	1222906 56 14096 14148 2.063332710112 2.064580710112 2 0 1 1 1
1605	1222962 112 14097 14149 2.063332710112 2.064580710112 4 0 2 4 6
1606	1223074 30 14148 14148 2.064580710112 2.064580710112 1 264 264 264 69696
1607	1223104 30 14148 14148 2.064580710112 2.064580710112 1 264 264 264 69696
1608	1223134 30 14148 14148 2.064580710112 2.064580710112 1 264 264 264 69696
1609	1223164 30 14148 14148 2.064580710112 2.064580710112 1 264 264 264 69696
1610	1223194 35 14148 14148 2.064580710112 2.064580710112 1 0.001248 0.001248 0.001248 1.557504e-06
1611	1223229 30 14446 14446 2.090482654065 2.090482654065 1 200 200 200 40000
1612	1223259 30 14447 14447 2.090482654065 2.090482654065 1 208 208 208 43264
1613	1223289 30 14449 14449 2.090482654065 2.090482654065 1 228 228 228 51984
1614	1223319 30 14449 14449 2.090482654065 2.090482654065 1 228 228 228 51984
1615	1223349 30 14452 14452 2.090482654065 2.090482654065 1 236 236 236 55696
1616	1223379 30 14452 14452 2.090482654065 2.090482654065 1 264 264 264 69696
1617	1223409 56 14452 14456 2.090482654065 2.090482654065 2 0 1 1 1
1618	1223465 28 14452 14452 2.090482654065 2.090482654065 1 5 5 5 25
1619	1223493 56 14452 14455 2.090482654065 2.090482654065 2 0 1 1 1
1620	1223549 30 14456 14456 2.090482654065 2.090482654065 1 264 264 264 69696
1621	1223579 28 14456 14456 2.090482654065 2.090482654065 1 0 0 0 0
1622	1223607 56 14456 14508 2.090482654065 2.091730654065 2 0 1 1 1
1623	1223663 34 14456 14456 2.090482654065 2.090482654065 1 2000000 2000000 2000000 4000000000000
1624	1223697 30 14456 14456 2.090482654065 2.090482654065 1 264 264 264 69696
1625	1223727 56 14456 14508 2.090482654065 2.091730654065 2 0 1 1 1
1626	1223783 112 14457 14509 2.090482654065 2.091730654065 4 0 2 4 6
1627	1223895 30 14508 14508 2.091730654065 2.091730654065 1 264 264 264 69696
1628	1223925 30 14508 14508 2.091730654065 2.091730654065 1 264 264 264 69696
1629	1223955 30 14508 14508 2.091730654065 2.091730654065 1 264 264 264 69696
1630	1223985 30 14508 14508 2.091730654065 2.091730654065 1 264 264 264 69696
1631	1224015 35 14508 14508 2.091730654065 2.091730654065 1 0.001248 0.001248 0.001248 1.557504e-06
1632	1224050 29 14775 14775 2.10553608636 2.10553608636 1 200 200 200 40000
1633	1224079 29 14776 14776 2.10553608636 2.10553608636 1 208 208 208 43264
1634	1224108 29 14778 14778 2.10553608636 2.10553608636 1 228 228 228 51984
1635	1224137 29 14778 14778 2.10553608636 2.10553608636 1 228 228 228 51984
1636	1224166 29 14781 14781 2.10553608636 2.10553608636 1 236 236 236 55696
1637	1224195 29 14781 14781 2.10553608636 2.10553608636 1 264 264 264 69696
1638	1224224 54 14781 14785 2.10553608636 2.10553608636 2 0 1 1 1
1639	1224278 27 14781 14781 2.10553608636 2.10553608636 1 3 3 3 9
1640	1224305 54 14781 14784 2.10553608636 2.10553608636 2 0 1 1 1
1641	1224359 29 14785 14785 2.10553608636 2.10553608636 1 264 264 264 69696
1642	1224388 27 14785 14785 2.10553608636 2.10553608636 1 0 0 0 0
1643	1224415 54 14785 14837 2.10553608636 2.10678408636 2 0 1 1 1
1644	1224469 33 14785 14785 2.10553608636 2.10553608636 1 2000000 2000000 2000000 4000000000000
1645	1224502 29 14785 14785 2.10553608636 2.10553608636 1 264 264 264 69696
1646	1224531 54 14785 14837 2.10553608636 2.10678408636 2 0 1 1 1
1647	1224585 108 14786 14838 2.10553608636 2.10678408636 4 0 2 4 6
1648	1224693 29 14837 14837 2.10678408636 2.10678408636 1 264 264 264 69696
1649	1224722 29 14837 14837 2.10678408636 2.10678408636 1 264 264 264 69696
1650	1224751 29 14837 14837 2.10678408636 2.10678408636 1 264 264 264 69696
1651	1224780 29 14837 14837 2.10678408636 2.10678408636 1 264 264 264 69696
1652	1224809 34 14837 14837 2.10678408636 2.10678408636 1 0.001248 0.001248 0.001248 1.557504e-06
1653	1224843 30 15118 15118 2.114578849976 2.114578849976 1 200 200 200 40000
1654	1224873 30 15119 15119 2.114578849976 2.114578849976 1 208 208 208 43264
1655	1224903 30 15121 15121 2.114578849976 2.114578849976 1 228 228 228 51984
1656	1224933 30 15121 15121 2.114578849976 2.114578849976 1 228 228 228 51984
1657	1224963 30 15124 15124 2.114578849976 2.114578849976 1 236 236 236 55696
1658	1224993 30 15124 15124 2.114578849976 2.114578849976 1 264 264 264 69696
1659	1225023 56 15124 15128 2.114578849976 2.114578849976 2 0 1 1 1
1660	1225079 28 15124 15124 2.114578849976 2.114578849976 1 2 2 2 4
1661	1225107 56 15124 15127 2.114578849976 2.114578849976 2 0 1 1 1
1662	1225163 30 15128 15128 2.114578849976 2.114578849976 1 264 264 264 69696
1663	1225193 28 15128 15128 2.114578849976 2.114578849976 1 0 0 0 0
1664	1225221 56 15128 15189 2.114578849976 2.115826849976 2 0 1 1 1
1665	1225277 34 15128 15128 2.114578849976 2.114578849976 1 2000000 2000000 2000000 4000000000000
1666	1225311 30 15128 15128 2.114578849976 2.114578849976 1 264 264 264 69696
1667	1225341 56 15128 15189 2.114578849976 2.115826849976 2 0 1 1 1
1668	1225397 112 15129 15190 2.114578849976 2.115826849976 4 0 2 4 6
1669	1225509 30 15180 15180 2.114678767216 2.114678767216 1 200 200 200 40000
1670	1225539 30 15181 15181 2.114678767216 2.114678767216 1 208 208 208 43264
1671	1225569 30 15183 15183 2.114678767216 2.114678767216 1 228 228 228 51984
1672	1225599 30 15183 15183 2.114678767216 2.114678767216 1 228 228 228 51984
1673	1225629 30 15186 15186 2.114678767216 2.114678767216 1 236 236 236 55696
1674	1225659 30 15186 15186 2.114678767216 2.114678767216 1 264 264 264 69696
1675	1225689 56 15186 15466 2.114678767216 2.115917587863 2 0 1 1 1
1676	1225745 28 15186 15186 2.114678767216 2.114678767216 1 2 2 2 4
1677	1225773 30 15189 15189 2.115826849976 2.115826849976 1 264 264 264 69696
1678	1225803 30 15189 15189 2.115826849976 2.115826849976 1 264 264 264 69696
1679	1225833 30 15189 15189 2.115826849976 2.115826849976 1 264 264 264 69696
1680	1225863 30 15189 15189 2.115826849976 2.115826849976 1 264 264 264 69696
1681	1225893 35 15189 15189 2.115826849976 2.115826849976 1 0.001248 0.001248 0.001248 1.557504e-06
1682	1225928 56 15437 15465 2.115827587863 2.115917587863 2 0 1 1 1
1683	1225984 30 15466 15466 2.115917587863 2.115917587863 1 264 264 264 69696
1684	1226014 41 15466 15466 2.115917587863 2.115917587863 1 0.001238820647 0.001238820647 0.001238820647 1.5346765954335e-06
1685	1226055 56 15466 15519 2.115917587863 2.117165587863 2 0 1 1 1
1686	1226111 34 15466 15466 2.115917587863 2.115917587863 1 2000000 2000000 2000000 4000000000000
1687	1226145 30 15466 15466 2.115917587863 2.115917587863 1 264 264 264 69696
1688	1226175 56 15466 15519 2.115917587863 2.117165587863 2 0 1 1 1
1689	1226231 112 15467 15520 2.115917587863 2.117165587863 4 0 2 4 6
1690	1226343 30 15519 15519 2.117165587863 2.117165587863 1 264 264 264 69696
1691	1226373 30 15519 15519 2.117165587863 2.117165587863 1 264 264 264 69696
1692	1226403 30 15519 15519 2.117165587863 2.117165587863 1 264 264 264 69696
1693	1226433 30 15519 15519 2.117165587863 2.117165587863 1 264 264 264 69696
1694	1226463 35 15519 15519 2.117165587863 2.117165587863 1 0.001248 0.001248 0.001248 1.557504e-06
1695	1226498 30 15817 15817 2.131138607299 2.131138607299 1 200 200 200 40000
1696	1226528 30 15818 15818 2.131138607299 2.131138607299 1 208 208 208 43264
1697	1226558 30 15820 15820 2.131138607299 2.131138607299 1 228 228 228 51984
1698	1226588 30 15820 15820 2.131138607299 2.131138607299 1 228 228 228 51984
1699	1226618 30 15823 15823 2.131138607299 2.131138607299 1 236 236 236 55696
1700	1226648 30 15823 15823 2.131138607299 2.131138607299 1 264 264 264 69696
1701	1226678 56 15823 15827 2.131138607299 2.131138607299 2 0 1 1 1
1702	1226734 28 15823 15823 2.131138607299 2.131138607299 1 5 5 5 25
1703	1226762 56 15823 15826 2.131138607299 2.131138607299 2 0 1 1 1
1704	1226818 30 15827 15827 2.131138607299 2.131138607299 1 264 264 264 69696
1705	1226848 28 15827 15827 2.131138607299 2.131138607299 1 0 0 0 0
1706	1226876 56 15827 15888 2.131138607299 2.132386607299 2 0 1 1 1
1707	1226932 34 15827 15827 2.131138607299 2.131138607299 1 2000000 2000000 2000000 4000000000000
1708	1226966 30 15827 15827 2.131138607299 2.131138607299 1 264 264 264 69696
1709	1226996 56 15827 15888 2.131138607299 2.132386607299 2 0 1 1 1
1710	1227052 112 15828 15889 2.131138607299 2.132386607299 4 0 2 4 6
1711	1227164 30 15879 15879 2.131506567108 2.131506567108 1 200 200 200 40000
1712	1227194 30 15880 15880 2.131506567108 2.131506567108 1 208 208 208 43264
1713	1227224 30 15882 15882 2.131506567108 2.131506567108 1 228 228 228 51984
1714	1227254 30 15882 15882 2.131506567108 2.131506567108 1 228 228 228 51984
1715	1227284 30 15885 15885 2.131506567108 2.131506567108 1 236 236 236 55696
1716	1227314 30 15885 15885 2.131506567108 2.131506567108 1 264 264 264 69696
1717	1227344 56 15885 16185 2.131506567108 2.132437125806 2 0 1 1 1
1718	1227400 28 15885 15885 2.131506567108 2.131506567108 1 0 0 0 0
1719	1227428 30 15888 15888 2.132386607299 2.132386607299 1 264 264 264 69696
1720	1227458 30 15888 15888 2.132386607299 2.132386607299 1 264 264 264 69696
1721	1227488 30 15888 15888 2.132386607299 2.132386607299 1 264 264 264 69696
1722	1227518 30 15888 15888 2.132386607299 2.132386607299 1 264 264 264 69696
1723	1227548 35 15888 15888 2.132386607299 2.132386607299 1 0.001248 0.001248 0.001248 1.557504e-06
1724	1227583 56 16052 16184 2.132387125806 2.132437125806 2 0 1 1 1
1725	1227639 30 16185 16185 2.132437125806 2.132437125806 1 264 264 264 69696
1726	1227669 41 16185 16185 2.132437125806 2.132437125806 1 0.000930558698 0.000930558698 0.000930558698 8.6593949042346e-07
1727	1227710 56 16185 16237 2.132437125806 2.133685125806 2 0 1 1 1
1728	1227766 34 16185 16185 2.132437125806 2.132437125806 1 2000000 2000000 2000000 4000000000000
1729	1227800 30 16185 16185 2.132437125806 2.132437125806 1 264 264 264 69696
1730	1227830 56 16185 16237 2.132437125806 2.133685125806 2 0 1 1 1
1731	1227886 112 16186 16238 2.132437125806 2.133685125806 4 0 2 4 6
1732	1227998 30 16237 16237 2.133685125806 2.133685125806 1 264 264 264 69696
1733	1228028 30 16237 16237 2.133685125806 2.133685125806 1 264 264 264 69696
1734	1228058 30 16237 16237 2.133685125806 2.133685125806 1 264 264 264 69696
1735	1228088 30 16237 16237 2.133685125806 2.133685125806 1 264 264 264 69696
1736	1228118 35 16237 16237 2.133685125806 2.133685125806 1 0.001248 0.001248 0.001248 1.557504e-06
1737	1228153 30 16533 16533 2.141563128781 2.141563128781 1 200 200 200 40000
1738	1228183 30 16534 16534 2.141563128781 2.141563128781 1 208 208 208 43264
1739	1228213 30 16536 16536 2.141563128781 2.141563128781 1 228 228 228 51984
1740	1228243 30 16536 16536 2.141563128781 2.141563128781 1 228 228 228 51984
1741	1228273 30 16539 16539 2.141563128781 2.141563128781 1 236 236 236 55696
1742	1228303 30 16539 16539 2.141563128781 2.141563128781 1 264 264 264 69696
1743	1228333 56 16539 16543 2.141563128781 2.141563128781 2 0 1 1 1
1744	1228389 28 16539 16539 2.141563128781 2.141563128781 1 7 7 7 49
1745	1228417 56 16539 16542 2.141563128781 2.141563128781 2 0 1 1 1
1746	1228473 30 16543 16543 2.141563128781 2.141563128781 1 264 264 264 69696
1747	1228503 28 16543 16543 2.141563128781 2.141563128781 1 0 0 0 0
1748	1228531 56 16543 16596 2.141563128781 2.142811128781 2 0 1 1 1
1749	1228587 34 16543 16543 2.141563128781 2.141563128781 1 2000000 2000000 2000000 4000000000000
1750	1228621 30 16543 16543 2.141563128781 2.141563128781 1 264 264 264 69696
1751	1228651 56 16543 16596 2.141563128781 2.142811128781 2 0 1 1 1
1752	1228707 112 16544 16597 2.141563128781 2.142811128781 4 0 2 4 6
1753	1228819 30 16596 16596 2.142811128781 2.142811128781 1 264 264 264 69696
1754	1228849 30 16596 16596 2.142811128781 2.142811128781 1 264 264 264 69696
1755	1228879 30 16596 16596 2.142811128781 2.142811128781 1 264 264 264 69696
1756	1228909 30 16596 16596 2.142811128781 2.142811128781 1 264 264 264 69696
1757	1228939 35 16596 16596 2.142811128781 2.142811128781 1 0.001248 0.001248 0.001248 1.557504e-06
1758	1228974 30 16894 16894 2.162678264556 2.162678264556 1 200 200 200 40000
1759	1229004 30 16895 16895 2.162678264556 2.162678264556 1 208 208 208 43264
1760	1229034 30 16897 16897 2.162678264556 2.162678264556 1 228 228 228 51984
1761	1229064 30 16897 16897 2.162678264556 2.162678264556 1 228 228 228 51984
1762	1229094 30 16900 16900 2.162678264556 2.162678264556 1 236 236 236 55696
1763	1229124 30 16900 16900 2.162678264556 2.162678264556 1 264 264 264 69696
1764	1229154 56 16900 16904 2.162678264556 2.162678264556 2 0 1 1 1
1765	1229210 28 16900 16900 2.162678264556 2.162678264556 1 5 5 5 25
1766	1229238 56 16900 16903 2.162678264556 2.162678264556 2 0 1 1 1
1767	1229294 30 16904 16904 2.162678264556 2.162678264556 1 264 264 264 69696
1768	1229324 28 16904 16904 2.162678264556 2.162678264556 1 0 0 0 0
1769	1229352 56 16904 16956 2.162678264556 2.163926264556 2 0 1 1 1
1770	1229408 34 16904 16904 2.162678264556 2.162678264556 1 2000000 2000000 2000000 4000000000000
1771	1229442 30 16904 16904 2.162678264556 2.162678264556 1 264 264 264 69696
1772	1229472 56 16904 16956 2.162678264556 2.163926264556 2 0 1 1 1
1773	1229528 112 16905 16957 2.162678264556 2.163926264556 4 0 2 4 6
1774	1229640 30 16956 16956 2.163926264556 2.163926264556 1 264 264 264 69696
1775	1229670 30 16956 16956 2.163926264556 2.163926264556 1 264 264 264 69696
1776	1229700 30 16956 16956 2.163926264556 2.163926264556 1 264 264 264 69696
1777	1229730 30 16956 16956 2.163926264556 2.163926264556 1 264 264 264 69696
1778	1229760 35 16956 16956 2.163926264556 2.163926264556 1 0.001248 0.001248 0.001248 1.557504e-06

