version 2
run Ping2-0-20201031-09:52:47-97022
attr configname Ping2
attr datetime 20201031-09:52:47
attr experiment Ping2
attr inifile omnetpp.ini
attr iterationvars ""
attr iterationvarsf ""
attr measurement ""
attr network BasicFloodProtNet
attr processid 97022
attr repetition 0
attr replication #0
attr resultdir results
attr runnumber 0
attr seedset 0
param **.constraintAreaMinX 0m
param **.constraintAreaMinY 0m
param **.constraintAreaMinZ 0m
param **.constraintAreaMaxX 300m
param **.constraintAreaMaxY 200m
param **.constraintAreaMaxZ 0m
param **.host*.mobility.typename "\"StationaryMobility\""
param **.host*.mobility.initFromDisplayString false
param *.host[*].numApps 1
param *.host[*].app[*].typename "\"BasicFloodProt\""
param *.host[1].app[*].destAddress "\"host[0]\""
param *.host[1].app[*].enableSend true
param *.host[1].app[*].flowId 1
param *.host[*].app[0].startTime "uniform(1s, 1.5s)"
param **.limitedBroadcast true
param **.wlan[*].bitrate 2Mbps
param **.wlan[*].mac.dcf.channelAccess.cwMin 7
param **.wlan[*].radio.transmitter.power 2mW
param **.wlan[*].radio.receiver.sensitivity -85dBm
param **.wlan[*].radio.receiver.snirThreshold 4dB

vector 0 BasicFloodProtNet.host[0].wlan[0].radio radioMode:vector ETV
attr interpolationmode sample-hold
attr source radioModeChanged
attr title "Radio mode, vector"
vector 1 BasicFloodProtNet.host[0].wlan[0].radio radioChannel:vector ETV
attr interpolationmode sample-hold
attr source radioChannelChanged
attr title "Radio channel, vector"
vector 2 BasicFloodProtNet.host[1].wlan[0].radio radioMode:vector ETV
attr interpolationmode sample-hold
attr source radioModeChanged
attr title "Radio mode, vector"
vector 3 BasicFloodProtNet.host[1].wlan[0].radio radioChannel:vector ETV
attr interpolationmode sample-hold
attr source radioChannelChanged
attr title "Radio channel, vector"
vector 4 BasicFloodProtNet.host[2].wlan[0].radio radioMode:vector ETV
attr interpolationmode sample-hold
attr source radioModeChanged
attr title "Radio mode, vector"
vector 5 BasicFloodProtNet.host[2].wlan[0].radio radioChannel:vector ETV
attr interpolationmode sample-hold
attr source radioChannelChanged
attr title "Radio channel, vector"
vector 6 BasicFloodProtNet.host[3].wlan[0].radio radioMode:vector ETV
attr interpolationmode sample-hold
attr source radioModeChanged
attr title "Radio mode, vector"
vector 7 BasicFloodProtNet.host[3].wlan[0].radio radioChannel:vector ETV
attr interpolationmode sample-hold
attr source radioChannelChanged
attr title "Radio channel, vector"
vector 8 BasicFloodProtNet.host[4].wlan[0].radio radioMode:vector ETV
attr interpolationmode sample-hold
attr source radioModeChanged
attr title "Radio mode, vector"
vector 9 BasicFloodProtNet.host[4].wlan[0].radio radioChannel:vector ETV
attr interpolationmode sample-hold
attr source radioChannelChanged
attr title "Radio channel, vector"
vector 10 BasicFloodProtNet.host[5].wlan[0].radio radioMode:vector ETV
attr interpolationmode sample-hold
attr source radioModeChanged
attr title "Radio mode, vector"
vector 11 BasicFloodProtNet.host[5].wlan[0].radio radioChannel:vector ETV
attr interpolationmode sample-hold
attr source radioChannelChanged
attr title "Radio channel, vector"
vector 12 BasicFloodProtNet.host[6].wlan[0].radio radioMode:vector ETV
attr interpolationmode sample-hold
attr source radioModeChanged
attr title "Radio mode, vector"
vector 13 BasicFloodProtNet.host[6].wlan[0].radio radioChannel:vector ETV
attr interpolationmode sample-hold
attr source radioChannelChanged
attr title "Radio channel, vector"
vector 14 BasicFloodProtNet.host[7].wlan[0].radio radioMode:vector ETV
attr interpolationmode sample-hold
attr source radioModeChanged
attr title "Radio mode, vector"
vector 15 BasicFloodProtNet.host[7].wlan[0].radio radioChannel:vector ETV
attr interpolationmode sample-hold
attr source radioChannelChanged
attr title "Radio channel, vector"
vector 16 BasicFloodProtNet.host[8].wlan[0].radio radioMode:vector ETV
attr interpolationmode sample-hold
attr source radioModeChanged
attr title "Radio mode, vector"
vector 17 BasicFloodProtNet.host[8].wlan[0].radio radioChannel:vector ETV
attr interpolationmode sample-hold
attr source radioChannelChanged
attr title "Radio channel, vector"
vector 18 BasicFloodProtNet.host[9].wlan[0].radio radioMode:vector ETV
attr interpolationmode sample-hold
attr source radioModeChanged
attr title "Radio mode, vector"
vector 19 BasicFloodProtNet.host[9].wlan[0].radio radioChannel:vector ETV
attr interpolationmode sample-hold
attr source radioChannelChanged
attr title "Radio channel, vector"
vector 20 BasicFloodProtNet.host[10].wlan[0].radio radioMode:vector ETV
attr interpolationmode sample-hold
attr source radioModeChanged
attr title "Radio mode, vector"
vector 21 BasicFloodProtNet.host[10].wlan[0].radio radioChannel:vector ETV
attr interpolationmode sample-hold
attr source radioChannelChanged
attr title "Radio channel, vector"
vector 22 BasicFloodProtNet.host[11].wlan[0].radio radioMode:vector ETV
attr interpolationmode sample-hold
attr source radioModeChanged
attr title "Radio mode, vector"
vector 23 BasicFloodProtNet.host[11].wlan[0].radio radioChannel:vector ETV
attr interpolationmode sample-hold
attr source radioChannelChanged
attr title "Radio channel, vector"
vector 24 BasicFloodProtNet.host[12].wlan[0].radio radioMode:vector ETV
attr interpolationmode sample-hold
attr source radioModeChanged
attr title "Radio mode, vector"
vector 25 BasicFloodProtNet.host[12].wlan[0].radio radioChannel:vector ETV
attr interpolationmode sample-hold
attr source radioChannelChanged
attr title "Radio channel, vector"
vector 26 BasicFloodProtNet.host[13].wlan[0].radio radioMode:vector ETV
attr interpolationmode sample-hold
attr source radioModeChanged
attr title "Radio mode, vector"
vector 27 BasicFloodProtNet.host[13].wlan[0].radio radioChannel:vector ETV
attr interpolationmode sample-hold
attr source radioChannelChanged
attr title "Radio channel, vector"
vector 28 BasicFloodProtNet.host[14].wlan[0].radio radioMode:vector ETV
attr interpolationmode sample-hold
attr source radioModeChanged
attr title "Radio mode, vector"
vector 29 BasicFloodProtNet.host[14].wlan[0].radio radioChannel:vector ETV
attr interpolationmode sample-hold
attr source radioChannelChanged
attr title "Radio channel, vector"
vector 30 BasicFloodProtNet.host[15].wlan[0].radio radioMode:vector ETV
attr interpolationmode sample-hold
attr source radioModeChanged
attr title "Radio mode, vector"
vector 31 BasicFloodProtNet.host[15].wlan[0].radio radioChannel:vector ETV
attr interpolationmode sample-hold
attr source radioChannelChanged
attr title "Radio channel, vector"
vector 32 BasicFloodProtNet.host[16].wlan[0].radio radioMode:vector ETV
attr interpolationmode sample-hold
attr source radioModeChanged
attr title "Radio mode, vector"
vector 33 BasicFloodProtNet.host[16].wlan[0].radio radioChannel:vector ETV
attr interpolationmode sample-hold
attr source radioChannelChanged
attr title "Radio channel, vector"
vector 34 BasicFloodProtNet.host[17].wlan[0].radio radioMode:vector ETV
attr interpolationmode sample-hold
attr source radioModeChanged
attr title "Radio mode, vector"
vector 35 BasicFloodProtNet.host[17].wlan[0].radio radioChannel:vector ETV
attr interpolationmode sample-hold
attr source radioChannelChanged
attr title "Radio channel, vector"
vector 36 BasicFloodProtNet.host[18].wlan[0].radio radioMode:vector ETV
attr interpolationmode sample-hold
attr source radioModeChanged
attr title "Radio mode, vector"
vector 37 BasicFloodProtNet.host[18].wlan[0].radio radioChannel:vector ETV
attr interpolationmode sample-hold
attr source radioChannelChanged
attr title "Radio channel, vector"
vector 38 BasicFloodProtNet.host[19].wlan[0].radio radioMode:vector ETV
attr interpolationmode sample-hold
attr source radioModeChanged
attr title "Radio mode, vector"
vector 39 BasicFloodProtNet.host[19].wlan[0].radio radioChannel:vector ETV
attr interpolationmode sample-hold
attr source radioChannelChanged
attr title "Radio channel, vector"
vector 40 BasicFloodProtNet.host[20].wlan[0].radio radioMode:vector ETV
attr interpolationmode sample-hold
attr source radioModeChanged
attr title "Radio mode, vector"
vector 41 BasicFloodProtNet.host[20].wlan[0].radio radioChannel:vector ETV
attr interpolationmode sample-hold
attr source radioChannelChanged
attr title "Radio channel, vector"
vector 42 BasicFloodProtNet.host[21].wlan[0].radio radioMode:vector ETV
attr interpolationmode sample-hold
attr source radioModeChanged
attr title "Radio mode, vector"
vector 43 BasicFloodProtNet.host[21].wlan[0].radio radioChannel:vector ETV
attr interpolationmode sample-hold
attr source radioChannelChanged
attr title "Radio channel, vector"
vector 44 BasicFloodProtNet.host[22].wlan[0].radio radioMode:vector ETV
attr interpolationmode sample-hold
attr source radioModeChanged
attr title "Radio mode, vector"
vector 45 BasicFloodProtNet.host[22].wlan[0].radio radioChannel:vector ETV
attr interpolationmode sample-hold
attr source radioChannelChanged
attr title "Radio channel, vector"
vector 46 BasicFloodProtNet.host[23].wlan[0].radio radioMode:vector ETV
attr interpolationmode sample-hold
attr source radioModeChanged
attr title "Radio mode, vector"
vector 47 BasicFloodProtNet.host[23].wlan[0].radio radioChannel:vector ETV
attr interpolationmode sample-hold
attr source radioChannelChanged
attr title "Radio channel, vector"
vector 48 BasicFloodProtNet.host[24].wlan[0].radio radioMode:vector ETV
attr interpolationmode sample-hold
attr source radioModeChanged
attr title "Radio mode, vector"
vector 49 BasicFloodProtNet.host[24].wlan[0].radio radioChannel:vector ETV
attr interpolationmode sample-hold
attr source radioChannelChanged
attr title "Radio channel, vector"
vector 50 BasicFloodProtNet.host[25].wlan[0].radio radioMode:vector ETV
attr interpolationmode sample-hold
attr source radioModeChanged
attr title "Radio mode, vector"
vector 51 BasicFloodProtNet.host[25].wlan[0].radio radioChannel:vector ETV
attr interpolationmode sample-hold
attr source radioChannelChanged
attr title "Radio channel, vector"
vector 52 BasicFloodProtNet.host[26].wlan[0].radio radioMode:vector ETV
attr interpolationmode sample-hold
attr source radioModeChanged
attr title "Radio mode, vector"
vector 53 BasicFloodProtNet.host[26].wlan[0].radio radioChannel:vector ETV
attr interpolationmode sample-hold
attr source radioChannelChanged
attr title "Radio channel, vector"
vector 54 BasicFloodProtNet.host[27].wlan[0].radio radioMode:vector ETV
attr interpolationmode sample-hold
attr source radioModeChanged
attr title "Radio mode, vector"
vector 55 BasicFloodProtNet.host[27].wlan[0].radio radioChannel:vector ETV
attr interpolationmode sample-hold
attr source radioChannelChanged
attr title "Radio channel, vector"
vector 56 BasicFloodProtNet.host[28].wlan[0].radio radioMode:vector ETV
attr interpolationmode sample-hold
attr source radioModeChanged
attr title "Radio mode, vector"
vector 57 BasicFloodProtNet.host[28].wlan[0].radio radioChannel:vector ETV
attr interpolationmode sample-hold
attr source radioChannelChanged
attr title "Radio channel, vector"
vector 58 BasicFloodProtNet.host[29].wlan[0].radio radioMode:vector ETV
attr interpolationmode sample-hold
attr source radioModeChanged
attr title "Radio mode, vector"
vector 59 BasicFloodProtNet.host[29].wlan[0].radio radioChannel:vector ETV
attr interpolationmode sample-hold
attr source radioChannelChanged
attr title "Radio channel, vector"
vector 60 BasicFloodProtNet.host[30].wlan[0].radio radioMode:vector ETV
attr interpolationmode sample-hold
attr source radioModeChanged
attr title "Radio mode, vector"
vector 61 BasicFloodProtNet.host[30].wlan[0].radio radioChannel:vector ETV
attr interpolationmode sample-hold
attr source radioChannelChanged
attr title "Radio channel, vector"
vector 62 BasicFloodProtNet.host[31].wlan[0].radio radioMode:vector ETV
attr interpolationmode sample-hold
attr source radioModeChanged
attr title "Radio mode, vector"
vector 63 BasicFloodProtNet.host[31].wlan[0].radio radioChannel:vector ETV
attr interpolationmode sample-hold
attr source radioChannelChanged
attr title "Radio channel, vector"
vector 64 BasicFloodProtNet.host[32].wlan[0].radio radioMode:vector ETV
attr interpolationmode sample-hold
attr source radioModeChanged
attr title "Radio mode, vector"
vector 65 BasicFloodProtNet.host[32].wlan[0].radio radioChannel:vector ETV
attr interpolationmode sample-hold
attr source radioChannelChanged
attr title "Radio channel, vector"
vector 66 BasicFloodProtNet.host[33].wlan[0].radio radioMode:vector ETV
attr interpolationmode sample-hold
attr source radioModeChanged
attr title "Radio mode, vector"
vector 67 BasicFloodProtNet.host[33].wlan[0].radio radioChannel:vector ETV
attr interpolationmode sample-hold
attr source radioChannelChanged
attr title "Radio channel, vector"
vector 68 BasicFloodProtNet.host[34].wlan[0].radio radioMode:vector ETV
attr interpolationmode sample-hold
attr source radioModeChanged
attr title "Radio mode, vector"
vector 69 BasicFloodProtNet.host[34].wlan[0].radio radioChannel:vector ETV
attr interpolationmode sample-hold
attr source radioChannelChanged
attr title "Radio channel, vector"
vector 70 BasicFloodProtNet.host[35].wlan[0].radio radioMode:vector ETV
attr interpolationmode sample-hold
attr source radioModeChanged
attr title "Radio mode, vector"
vector 71 BasicFloodProtNet.host[35].wlan[0].radio radioChannel:vector ETV
attr interpolationmode sample-hold
attr source radioChannelChanged
attr title "Radio channel, vector"
vector 72 BasicFloodProtNet.host[36].wlan[0].radio radioMode:vector ETV
attr interpolationmode sample-hold
attr source radioModeChanged
attr title "Radio mode, vector"
vector 73 BasicFloodProtNet.host[36].wlan[0].radio radioChannel:vector ETV
attr interpolationmode sample-hold
attr source radioChannelChanged
attr title "Radio channel, vector"
vector 74 BasicFloodProtNet.host[37].wlan[0].radio radioMode:vector ETV
attr interpolationmode sample-hold
attr source radioModeChanged
attr title "Radio mode, vector"
vector 75 BasicFloodProtNet.host[37].wlan[0].radio radioChannel:vector ETV
attr interpolationmode sample-hold
attr source radioChannelChanged
attr title "Radio channel, vector"
vector 76 BasicFloodProtNet.host[38].wlan[0].radio radioMode:vector ETV
attr interpolationmode sample-hold
attr source radioModeChanged
attr title "Radio mode, vector"
vector 77 BasicFloodProtNet.host[38].wlan[0].radio radioChannel:vector ETV
attr interpolationmode sample-hold
attr source radioChannelChanged
attr title "Radio channel, vector"
vector 78 BasicFloodProtNet.host[39].wlan[0].radio radioMode:vector ETV
attr interpolationmode sample-hold
attr source radioModeChanged
attr title "Radio mode, vector"
vector 79 BasicFloodProtNet.host[39].wlan[0].radio radioChannel:vector ETV
attr interpolationmode sample-hold
attr source radioChannelChanged
attr title "Radio channel, vector"
vector 80 BasicFloodProtNet.host[40].wlan[0].radio radioMode:vector ETV
attr interpolationmode sample-hold
attr source radioModeChanged
attr title "Radio mode, vector"
vector 81 BasicFloodProtNet.host[40].wlan[0].radio radioChannel:vector ETV
attr interpolationmode sample-hold
attr source radioChannelChanged
attr title "Radio channel, vector"
vector 82 BasicFloodProtNet.host[41].wlan[0].radio radioMode:vector ETV
attr interpolationmode sample-hold
attr source radioModeChanged
attr title "Radio mode, vector"
vector 83 BasicFloodProtNet.host[41].wlan[0].radio radioChannel:vector ETV
attr interpolationmode sample-hold
attr source radioChannelChanged
attr title "Radio channel, vector"
vector 84 BasicFloodProtNet.host[42].wlan[0].radio radioMode:vector ETV
attr interpolationmode sample-hold
attr source radioModeChanged
attr title "Radio mode, vector"
vector 85 BasicFloodProtNet.host[42].wlan[0].radio radioChannel:vector ETV
attr interpolationmode sample-hold
attr source radioChannelChanged
attr title "Radio channel, vector"
vector 86 BasicFloodProtNet.host[43].wlan[0].radio radioMode:vector ETV
attr interpolationmode sample-hold
attr source radioModeChanged
attr title "Radio mode, vector"
vector 87 BasicFloodProtNet.host[43].wlan[0].radio radioChannel:vector ETV
attr interpolationmode sample-hold
attr source radioChannelChanged
attr title "Radio channel, vector"
vector 88 BasicFloodProtNet.host[44].wlan[0].radio radioMode:vector ETV
attr interpolationmode sample-hold
attr source radioModeChanged
attr title "Radio mode, vector"
vector 89 BasicFloodProtNet.host[44].wlan[0].radio radioChannel:vector ETV
attr interpolationmode sample-hold
attr source radioChannelChanged
attr title "Radio channel, vector"
vector 90 BasicFloodProtNet.host[45].wlan[0].radio radioMode:vector ETV
attr interpolationmode sample-hold
attr source radioModeChanged
attr title "Radio mode, vector"
vector 91 BasicFloodProtNet.host[45].wlan[0].radio radioChannel:vector ETV
attr interpolationmode sample-hold
attr source radioChannelChanged
attr title "Radio channel, vector"
vector 92 BasicFloodProtNet.host[46].wlan[0].radio radioMode:vector ETV
attr interpolationmode sample-hold
attr source radioModeChanged
attr title "Radio mode, vector"
vector 93 BasicFloodProtNet.host[46].wlan[0].radio radioChannel:vector ETV
attr interpolationmode sample-hold
attr source radioChannelChanged
attr title "Radio channel, vector"
vector 94 BasicFloodProtNet.host[47].wlan[0].radio radioMode:vector ETV
attr interpolationmode sample-hold
attr source radioModeChanged
attr title "Radio mode, vector"
vector 95 BasicFloodProtNet.host[47].wlan[0].radio radioChannel:vector ETV
attr interpolationmode sample-hold
attr source radioChannelChanged
attr title "Radio channel, vector"
vector 96 BasicFloodProtNet.host[48].wlan[0].radio radioMode:vector ETV
attr interpolationmode sample-hold
attr source radioModeChanged
attr title "Radio mode, vector"
vector 97 BasicFloodProtNet.host[48].wlan[0].radio radioChannel:vector ETV
attr interpolationmode sample-hold
attr source radioChannelChanged
attr title "Radio channel, vector"
vector 98 BasicFloodProtNet.host[49].wlan[0].radio radioMode:vector ETV
attr interpolationmode sample-hold
attr source radioModeChanged
attr title "Radio mode, vector"
vector 99 BasicFloodProtNet.host[49].wlan[0].radio radioChannel:vector ETV
attr interpolationmode sample-hold
attr source radioChannelChanged
attr title "Radio channel, vector"
vector 100 BasicFloodProtNet.host[0].wlan[0].radio receptionState:vector ETV
attr interpolationmode sample-hold
attr source receptionStateChanged
attr title "Radio reception state, vector"
vector 101 BasicFloodProtNet.host[1].wlan[0].radio receptionState:vector ETV
attr interpolationmode sample-hold
attr source receptionStateChanged
attr title "Radio reception state, vector"
vector 102 BasicFloodProtNet.host[2].wlan[0].radio receptionState:vector ETV
attr interpolationmode sample-hold
attr source receptionStateChanged
attr title "Radio reception state, vector"
vector 103 BasicFloodProtNet.host[3].wlan[0].radio receptionState:vector ETV
attr interpolationmode sample-hold
attr source receptionStateChanged
attr title "Radio reception state, vector"
vector 104 BasicFloodProtNet.host[4].wlan[0].radio receptionState:vector ETV
attr interpolationmode sample-hold
attr source receptionStateChanged
attr title "Radio reception state, vector"
vector 105 BasicFloodProtNet.host[5].wlan[0].radio receptionState:vector ETV
attr interpolationmode sample-hold
attr source receptionStateChanged
attr title "Radio reception state, vector"
vector 106 BasicFloodProtNet.host[6].wlan[0].radio receptionState:vector ETV
attr interpolationmode sample-hold
attr source receptionStateChanged
attr title "Radio reception state, vector"
vector 107 BasicFloodProtNet.host[7].wlan[0].radio receptionState:vector ETV
attr interpolationmode sample-hold
attr source receptionStateChanged
attr title "Radio reception state, vector"
vector 108 BasicFloodProtNet.host[8].wlan[0].radio receptionState:vector ETV
attr interpolationmode sample-hold
attr source receptionStateChanged
attr title "Radio reception state, vector"
vector 109 BasicFloodProtNet.host[9].wlan[0].radio receptionState:vector ETV
attr interpolationmode sample-hold
attr source receptionStateChanged
attr title "Radio reception state, vector"
vector 110 BasicFloodProtNet.host[10].wlan[0].radio receptionState:vector ETV
attr interpolationmode sample-hold
attr source receptionStateChanged
attr title "Radio reception state, vector"
vector 111 BasicFloodProtNet.host[11].wlan[0].radio receptionState:vector ETV
attr interpolationmode sample-hold
attr source receptionStateChanged
attr title "Radio reception state, vector"
vector 112 BasicFloodProtNet.host[12].wlan[0].radio receptionState:vector ETV
attr interpolationmode sample-hold
attr source receptionStateChanged
attr title "Radio reception state, vector"
vector 113 BasicFloodProtNet.host[13].wlan[0].radio receptionState:vector ETV
attr interpolationmode sample-hold
attr source receptionStateChanged
attr title "Radio reception state, vector"
vector 114 BasicFloodProtNet.host[14].wlan[0].radio receptionState:vector ETV
attr interpolationmode sample-hold
attr source receptionStateChanged
attr title "Radio reception state, vector"
vector 115 BasicFloodProtNet.host[15].wlan[0].radio receptionState:vector ETV
attr interpolationmode sample-hold
attr source receptionStateChanged
attr title "Radio reception state, vector"
vector 116 BasicFloodProtNet.host[16].wlan[0].radio receptionState:vector ETV
attr interpolationmode sample-hold
attr source receptionStateChanged
attr title "Radio reception state, vector"
vector 117 BasicFloodProtNet.host[17].wlan[0].radio receptionState:vector ETV
attr interpolationmode sample-hold
attr source receptionStateChanged
attr title "Radio reception state, vector"
vector 118 BasicFloodProtNet.host[18].wlan[0].radio receptionState:vector ETV
attr interpolationmode sample-hold
attr source receptionStateChanged
attr title "Radio reception state, vector"
vector 119 BasicFloodProtNet.host[19].wlan[0].radio receptionState:vector ETV
attr interpolationmode sample-hold
attr source receptionStateChanged
attr title "Radio reception state, vector"
vector 120 BasicFloodProtNet.host[20].wlan[0].radio receptionState:vector ETV
attr interpolationmode sample-hold
attr source receptionStateChanged
attr title "Radio reception state, vector"
vector 121 BasicFloodProtNet.host[21].wlan[0].radio receptionState:vector ETV
attr interpolationmode sample-hold
attr source receptionStateChanged
attr title "Radio reception state, vector"
vector 122 BasicFloodProtNet.host[22].wlan[0].radio receptionState:vector ETV
attr interpolationmode sample-hold
attr source receptionStateChanged
attr title "Radio reception state, vector"
vector 123 BasicFloodProtNet.host[23].wlan[0].radio receptionState:vector ETV
attr interpolationmode sample-hold
attr source receptionStateChanged
attr title "Radio reception state, vector"
vector 124 BasicFloodProtNet.host[24].wlan[0].radio receptionState:vector ETV
attr interpolationmode sample-hold
attr source receptionStateChanged
attr title "Radio reception state, vector"
vector 125 BasicFloodProtNet.host[25].wlan[0].radio receptionState:vector ETV
attr interpolationmode sample-hold
attr source receptionStateChanged
attr title "Radio reception state, vector"
vector 126 BasicFloodProtNet.host[26].wlan[0].radio receptionState:vector ETV
attr interpolationmode sample-hold
attr source receptionStateChanged
attr title "Radio reception state, vector"
vector 127 BasicFloodProtNet.host[27].wlan[0].radio receptionState:vector ETV
attr interpolationmode sample-hold
attr source receptionStateChanged
attr title "Radio reception state, vector"
vector 128 BasicFloodProtNet.host[28].wlan[0].radio receptionState:vector ETV
attr interpolationmode sample-hold
attr source receptionStateChanged
attr title "Radio reception state, vector"
vector 129 BasicFloodProtNet.host[29].wlan[0].radio receptionState:vector ETV
attr interpolationmode sample-hold
attr source receptionStateChanged
attr title "Radio reception state, vector"
vector 130 BasicFloodProtNet.host[30].wlan[0].radio receptionState:vector ETV
attr interpolationmode sample-hold
attr source receptionStateChanged
attr title "Radio reception state, vector"
vector 131 BasicFloodProtNet.host[31].wlan[0].radio receptionState:vector ETV
attr interpolationmode sample-hold
attr source receptionStateChanged
attr title "Radio reception state, vector"
vector 132 BasicFloodProtNet.host[32].wlan[0].radio receptionState:vector ETV
attr interpolationmode sample-hold
attr source receptionStateChanged
attr title "Radio reception state, vector"
vector 133 BasicFloodProtNet.host[33].wlan[0].radio receptionState:vector ETV
attr interpolationmode sample-hold
attr source receptionStateChanged
attr title "Radio reception state, vector"
vector 134 BasicFloodProtNet.host[34].wlan[0].radio receptionState:vector ETV
attr interpolationmode sample-hold
attr source receptionStateChanged
attr title "Radio reception state, vector"
vector 135 BasicFloodProtNet.host[35].wlan[0].radio receptionState:vector ETV
attr interpolationmode sample-hold
attr source receptionStateChanged
attr title "Radio reception state, vector"
vector 136 BasicFloodProtNet.host[36].wlan[0].radio receptionState:vector ETV
attr interpolationmode sample-hold
attr source receptionStateChanged
attr title "Radio reception state, vector"
vector 137 BasicFloodProtNet.host[37].wlan[0].radio receptionState:vector ETV
attr interpolationmode sample-hold
attr source receptionStateChanged
attr title "Radio reception state, vector"
vector 138 BasicFloodProtNet.host[38].wlan[0].radio receptionState:vector ETV
attr interpolationmode sample-hold
attr source receptionStateChanged
attr title "Radio reception state, vector"
vector 139 BasicFloodProtNet.host[39].wlan[0].radio receptionState:vector ETV
attr interpolationmode sample-hold
attr source receptionStateChanged
attr title "Radio reception state, vector"
vector 140 BasicFloodProtNet.host[40].wlan[0].radio receptionState:vector ETV
attr interpolationmode sample-hold
attr source receptionStateChanged
attr title "Radio reception state, vector"
vector 141 BasicFloodProtNet.host[41].wlan[0].radio receptionState:vector ETV
attr interpolationmode sample-hold
attr source receptionStateChanged
attr title "Radio reception state, vector"
vector 142 BasicFloodProtNet.host[42].wlan[0].radio receptionState:vector ETV
attr interpolationmode sample-hold
attr source receptionStateChanged
attr title "Radio reception state, vector"
vector 143 BasicFloodProtNet.host[43].wlan[0].radio receptionState:vector ETV
attr interpolationmode sample-hold
attr source receptionStateChanged
attr title "Radio reception state, vector"
vector 144 BasicFloodProtNet.host[44].wlan[0].radio receptionState:vector ETV
attr interpolationmode sample-hold
attr source receptionStateChanged
attr title "Radio reception state, vector"
vector 145 BasicFloodProtNet.host[45].wlan[0].radio receptionState:vector ETV
attr interpolationmode sample-hold
attr source receptionStateChanged
attr title "Radio reception state, vector"
vector 146 BasicFloodProtNet.host[46].wlan[0].radio receptionState:vector ETV
attr interpolationmode sample-hold
attr source receptionStateChanged
attr title "Radio reception state, vector"
vector 147 BasicFloodProtNet.host[47].wlan[0].radio receptionState:vector ETV
attr interpolationmode sample-hold
attr source receptionStateChanged
attr title "Radio reception state, vector"
vector 148 BasicFloodProtNet.host[48].wlan[0].radio receptionState:vector ETV
attr interpolationmode sample-hold
attr source receptionStateChanged
attr title "Radio reception state, vector"
vector 149 BasicFloodProtNet.host[49].wlan[0].radio receptionState:vector ETV
attr interpolationmode sample-hold
attr source receptionStateChanged
attr title "Radio reception state, vector"
vector 150 BasicFloodProtNet.host[0].wlan[0].mac.dcf.recoveryProcedure contentionWindowChanged:vector ETV
attr interpolationmode sample-hold
attr title "contention window, vector"
vector 151 BasicFloodProtNet.host[1].wlan[0].mac.dcf.recoveryProcedure contentionWindowChanged:vector ETV
attr interpolationmode sample-hold
attr title "contention window, vector"
vector 152 BasicFloodProtNet.host[2].wlan[0].mac.dcf.recoveryProcedure contentionWindowChanged:vector ETV
attr interpolationmode sample-hold
attr title "contention window, vector"
vector 153 BasicFloodProtNet.host[3].wlan[0].mac.dcf.recoveryProcedure contentionWindowChanged:vector ETV
attr interpolationmode sample-hold
attr title "contention window, vector"
vector 154 BasicFloodProtNet.host[4].wlan[0].mac.dcf.recoveryProcedure contentionWindowChanged:vector ETV
attr interpolationmode sample-hold
attr title "contention window, vector"
vector 155 BasicFloodProtNet.host[5].wlan[0].mac.dcf.recoveryProcedure contentionWindowChanged:vector ETV
attr interpolationmode sample-hold
attr title "contention window, vector"
vector 156 BasicFloodProtNet.host[6].wlan[0].mac.dcf.recoveryProcedure contentionWindowChanged:vector ETV
attr interpolationmode sample-hold
attr title "contention window, vector"
vector 157 BasicFloodProtNet.host[7].wlan[0].mac.dcf.recoveryProcedure contentionWindowChanged:vector ETV
attr interpolationmode sample-hold
attr title "contention window, vector"
vector 158 BasicFloodProtNet.host[8].wlan[0].mac.dcf.recoveryProcedure contentionWindowChanged:vector ETV
attr interpolationmode sample-hold
attr title "contention window, vector"
vector 159 BasicFloodProtNet.host[9].wlan[0].mac.dcf.recoveryProcedure contentionWindowChanged:vector ETV
attr interpolationmode sample-hold
attr title "contention window, vector"
vector 160 BasicFloodProtNet.host[10].wlan[0].mac.dcf.recoveryProcedure contentionWindowChanged:vector ETV
attr interpolationmode sample-hold
attr title "contention window, vector"
vector 161 BasicFloodProtNet.host[11].wlan[0].mac.dcf.recoveryProcedure contentionWindowChanged:vector ETV
attr interpolationmode sample-hold
attr title "contention window, vector"
vector 162 BasicFloodProtNet.host[12].wlan[0].mac.dcf.recoveryProcedure contentionWindowChanged:vector ETV
attr interpolationmode sample-hold
attr title "contention window, vector"
vector 163 BasicFloodProtNet.host[13].wlan[0].mac.dcf.recoveryProcedure contentionWindowChanged:vector ETV
attr interpolationmode sample-hold
attr title "contention window, vector"
vector 164 BasicFloodProtNet.host[14].wlan[0].mac.dcf.recoveryProcedure contentionWindowChanged:vector ETV
attr interpolationmode sample-hold
attr title "contention window, vector"
vector 165 BasicFloodProtNet.host[15].wlan[0].mac.dcf.recoveryProcedure contentionWindowChanged:vector ETV
attr interpolationmode sample-hold
attr title "contention window, vector"
vector 166 BasicFloodProtNet.host[16].wlan[0].mac.dcf.recoveryProcedure contentionWindowChanged:vector ETV
attr interpolationmode sample-hold
attr title "contention window, vector"
vector 167 BasicFloodProtNet.host[17].wlan[0].mac.dcf.recoveryProcedure contentionWindowChanged:vector ETV
attr interpolationmode sample-hold
attr title "contention window, vector"
vector 168 BasicFloodProtNet.host[18].wlan[0].mac.dcf.recoveryProcedure contentionWindowChanged:vector ETV
attr interpolationmode sample-hold
attr title "contention window, vector"
vector 169 BasicFloodProtNet.host[19].wlan[0].mac.dcf.recoveryProcedure contentionWindowChanged:vector ETV
attr interpolationmode sample-hold
attr title "contention window, vector"
vector 170 BasicFloodProtNet.host[20].wlan[0].mac.dcf.recoveryProcedure contentionWindowChanged:vector ETV
attr interpolationmode sample-hold
attr title "contention window, vector"
vector 171 BasicFloodProtNet.host[21].wlan[0].mac.dcf.recoveryProcedure contentionWindowChanged:vector ETV
attr interpolationmode sample-hold
attr title "contention window, vector"
vector 172 BasicFloodProtNet.host[22].wlan[0].mac.dcf.recoveryProcedure contentionWindowChanged:vector ETV
attr interpolationmode sample-hold
attr title "contention window, vector"
vector 173 BasicFloodProtNet.host[23].wlan[0].mac.dcf.recoveryProcedure contentionWindowChanged:vector ETV
attr interpolationmode sample-hold
attr title "contention window, vector"
vector 174 BasicFloodProtNet.host[24].wlan[0].mac.dcf.recoveryProcedure contentionWindowChanged:vector ETV
attr interpolationmode sample-hold
attr title "contention window, vector"
vector 175 BasicFloodProtNet.host[25].wlan[0].mac.dcf.recoveryProcedure contentionWindowChanged:vector ETV
attr interpolationmode sample-hold
attr title "contention window, vector"
vector 176 BasicFloodProtNet.host[26].wlan[0].mac.dcf.recoveryProcedure contentionWindowChanged:vector ETV
attr interpolationmode sample-hold
attr title "contention window, vector"
vector 177 BasicFloodProtNet.host[27].wlan[0].mac.dcf.recoveryProcedure contentionWindowChanged:vector ETV
attr interpolationmode sample-hold
attr title "contention window, vector"
vector 178 BasicFloodProtNet.host[28].wlan[0].mac.dcf.recoveryProcedure contentionWindowChanged:vector ETV
attr interpolationmode sample-hold
attr title "contention window, vector"
vector 179 BasicFloodProtNet.host[29].wlan[0].mac.dcf.recoveryProcedure contentionWindowChanged:vector ETV
attr interpolationmode sample-hold
attr title "contention window, vector"
vector 180 BasicFloodProtNet.host[30].wlan[0].mac.dcf.recoveryProcedure contentionWindowChanged:vector ETV
attr interpolationmode sample-hold
attr title "contention window, vector"
vector 181 BasicFloodProtNet.host[31].wlan[0].mac.dcf.recoveryProcedure contentionWindowChanged:vector ETV
attr interpolationmode sample-hold
attr title "contention window, vector"
vector 182 BasicFloodProtNet.host[32].wlan[0].mac.dcf.recoveryProcedure contentionWindowChanged:vector ETV
attr interpolationmode sample-hold
attr title "contention window, vector"
vector 183 BasicFloodProtNet.host[33].wlan[0].mac.dcf.recoveryProcedure contentionWindowChanged:vector ETV
attr interpolationmode sample-hold
attr title "contention window, vector"
vector 184 BasicFloodProtNet.host[34].wlan[0].mac.dcf.recoveryProcedure contentionWindowChanged:vector ETV
attr interpolationmode sample-hold
attr title "contention window, vector"
vector 185 BasicFloodProtNet.host[35].wlan[0].mac.dcf.recoveryProcedure contentionWindowChanged:vector ETV
attr interpolationmode sample-hold
attr title "contention window, vector"
vector 186 BasicFloodProtNet.host[36].wlan[0].mac.dcf.recoveryProcedure contentionWindowChanged:vector ETV
attr interpolationmode sample-hold
attr title "contention window, vector"
vector 187 BasicFloodProtNet.host[37].wlan[0].mac.dcf.recoveryProcedure contentionWindowChanged:vector ETV
attr interpolationmode sample-hold
attr title "contention window, vector"
vector 188 BasicFloodProtNet.host[38].wlan[0].mac.dcf.recoveryProcedure contentionWindowChanged:vector ETV
attr interpolationmode sample-hold
attr title "contention window, vector"
vector 189 BasicFloodProtNet.host[39].wlan[0].mac.dcf.recoveryProcedure contentionWindowChanged:vector ETV
attr interpolationmode sample-hold
attr title "contention window, vector"
vector 190 BasicFloodProtNet.host[40].wlan[0].mac.dcf.recoveryProcedure contentionWindowChanged:vector ETV
attr interpolationmode sample-hold
attr title "contention window, vector"
vector 191 BasicFloodProtNet.host[41].wlan[0].mac.dcf.recoveryProcedure contentionWindowChanged:vector ETV
attr interpolationmode sample-hold
attr title "contention window, vector"
vector 192 BasicFloodProtNet.host[42].wlan[0].mac.dcf.recoveryProcedure contentionWindowChanged:vector ETV
attr interpolationmode sample-hold
attr title "contention window, vector"
vector 193 BasicFloodProtNet.host[43].wlan[0].mac.dcf.recoveryProcedure contentionWindowChanged:vector ETV
attr interpolationmode sample-hold
attr title "contention window, vector"
vector 194 BasicFloodProtNet.host[44].wlan[0].mac.dcf.recoveryProcedure contentionWindowChanged:vector ETV
attr interpolationmode sample-hold
attr title "contention window, vector"
vector 195 BasicFloodProtNet.host[45].wlan[0].mac.dcf.recoveryProcedure contentionWindowChanged:vector ETV
attr interpolationmode sample-hold
attr title "contention window, vector"
vector 196 BasicFloodProtNet.host[46].wlan[0].mac.dcf.recoveryProcedure contentionWindowChanged:vector ETV
attr interpolationmode sample-hold
attr title "contention window, vector"
vector 197 BasicFloodProtNet.host[47].wlan[0].mac.dcf.recoveryProcedure contentionWindowChanged:vector ETV
attr interpolationmode sample-hold
attr title "contention window, vector"
vector 198 BasicFloodProtNet.host[48].wlan[0].mac.dcf.recoveryProcedure contentionWindowChanged:vector ETV
attr interpolationmode sample-hold
attr title "contention window, vector"
vector 199 BasicFloodProtNet.host[49].wlan[0].mac.dcf.recoveryProcedure contentionWindowChanged:vector ETV
attr interpolationmode sample-hold
attr title "contention window, vector"
vector 200 BasicFloodProtNet.host[1].app[0] packetSent:vector(packetBytes) ETV
attr interpolationmode none
attr source packetSent
attr title "packets sent, vector(packetBytes)"
vector 201 BasicFloodProtNet.host[1].udp packetSent:vector(packetBytes) ETV
attr interpolationmode none
attr source packetSent
attr title "packets sent, vector(packetBytes)"
vector 202 BasicFloodProtNet.host[1].lo[0].lo rcvdPkFromHl:vector(packetBytes) ETV
attr interpolationmode none
attr source packetReceivedFromUpper
attr title "packets received from higher layer, vector(packetBytes)"
vector 203 BasicFloodProtNet.host[1].lo[0].lo passedUpPk:vector(packetBytes) ETV
attr interpolationmode none
attr source packetSentToUpper
attr title "packets passed to higher layer, vector(packetBytes)"
vector 204 BasicFloodProtNet.host[1].wlan[0].mac packetReceivedFromUpper:vector(packetBytes) ETV
attr interpolationmode none
attr title "packets received from upper layer, vector(packetBytes)"
vector 205 BasicFloodProtNet.host[1].wlan[0].mac.dcf.channelAccess.pendingQueue packetPushed:vector(packetBytes) ETV
attr interpolationmode none
attr title "packet pushed, vector(packetBytes)"
vector 206 BasicFloodProtNet.host[1].wlan[0].mac.dcf.channelAccess.pendingQueue queueLength:vector ETV
attr interpolationmode sample-hold
attr source "count(packetPushed) - count(packetPopped) - count(packetRemoved) - count(packetDropped)"
attr title "queue length, vector"
vector 207 BasicFloodProtNet.host[1].wlan[0].mac.dcf.channelAccess.contention backoffPeriodGenerated:vector ETV
attr interpolationmode none
attr title "backoff periods, vector"
vector 208 BasicFloodProtNet.host[1].wlan[0].mac.dcf.channelAccess.contention backoffActive:vector ETV
attr interpolationmode sample-hold
attr source count(backoffStarted)-count(backoffStopped)
attr title "backoff active, vector"
vector 209 BasicFloodProtNet.host[1].udp packetReceived:vector(packetBytes) ETV
attr interpolationmode none
attr source packetReceived
attr title "packets received, vector(packetBytes)"
vector 210 BasicFloodProtNet.host[1].udp passedUpPk:vector(count) ETV
attr interpolationmode none
attr source packetSentToUpper
attr title "packets passed up, vector(count)"
vector 211 BasicFloodProtNet.host[1].app[0] packetReceived:vector(packetBytes) ETV
attr interpolationmode none
attr source packetReceived
attr title "packets received, vector(packetBytes)"
vector 212 BasicFloodProtNet.host[1].app[0] throughput:vector ETV
attr source throughput(packetReceived)
attr title "throughput, vector"
attr unit bps
vector 213 BasicFloodProtNet.host[1].app[0] rcvdPkLifetime:vector ETV
attr interpolationmode none
attr source dataAge(packetReceived)
attr title "received packet lifetime, vector"
attr unit s
vector 214 BasicFloodProtNet.host[1].wlan[0].mac.dcf.channelAccess.pendingQueue packetPopped:vector(packetBytes) ETV
attr interpolationmode none
attr title "packet popped, vector(packetBytes)"
vector 215 BasicFloodProtNet.host[1].wlan[0].mac.dcf.channelAccess.pendingQueue queueingTime:vector ETV
attr interpolationmode none
attr source queueingTime(packetPopped)
attr title "queueing times, vector"
attr unit s
vector 216 BasicFloodProtNet.host[1].wlan[0].mac.dcf.channelAccess.inProgressFrames queueLength:vector ETV
attr interpolationmode sample-hold
attr source "count(packetEnqueued) - count(packetDequeued)"
attr title "queue length, vector"
vector 217 BasicFloodProtNet.host[1].wlan[0].mac.dcf datarateSelected:vector ETV
attr interpolationmode none
attr title "datarates selected, vector"
vector 218 BasicFloodProtNet.host[1].wlan[0].mac packetSentToLower:vector(packetBytes) ETV
attr interpolationmode none
attr title "packets sent to lower layer, vector(packetBytes)"
vector 219 BasicFloodProtNet.host[1].wlan[0].mac.dcf frameSequenceActive:vector ETV
attr interpolationmode sample-hold
attr source count(frameSequenceStarted)-count(frameSequenceFinished)
attr title "frame sequence active, vector"
vector 220 BasicFloodProtNet.host[1].wlan[0].radio transmissionState:vector ETV
attr interpolationmode sample-hold
attr source transmissionStateChanged
attr title "Radio transmission state, vector"
vector 221 BasicFloodProtNet.host[1].wlan[0].mac.dcf packetSentToPeer:vector(packetBytes) ETV
attr interpolationmode none
attr title "packets sent, vector(packetBytes)"
vector 222 BasicFloodProtNet.host[1].wlan[0].mac.dcf packetSentToPeerMulticast:vector(packetBytes) ETV
attr interpolationmode none
attr source ieee80211Multicast(packetSentToPeer)
attr title "packets sent: multicast, vector(packetBytes)"
vector 223 BasicFloodProtNet.host[1].wlan[0].mac.dcf packetSentToPeerBroadcast:vector(packetBytes) ETV
attr interpolationmode none
attr source ieee80211Broadcast(packetSentToPeer)
attr title "packets sent: broadcast , vector(packetBytes)"
vector 224 BasicFloodProtNet.host[1].wlan[0].mac.dcf packetSentToPeerWithoutRetry:vector(packetBytes) ETV
attr interpolationmode none
attr source ieee80211NotRetry(packetSentToPeer)
attr title "packets sent: without retry, vector(packetBytes)"
vector 225 BasicFloodProtNet.host[1].wlan[0].mac.dcf.channelAccess.inProgressFrames queueingTime:vector ETV
attr interpolationmode none
attr source queueingTime(packetDequeued)
attr title "queueing times, vector"
vector 226 BasicFloodProtNet.host[17].wlan[0].mac packetReceivedFromLower:vector(packetBytes) ETV
attr interpolationmode none
attr title "packets received from lower layer, vector(packetBytes)"
vector 227 BasicFloodProtNet.host[17].wlan[0].mac.dcf packetReceivedFromPeer:vector(packetBytes) ETV
attr interpolationmode none
attr title "packets received, vector(packetBytes)"
vector 228 BasicFloodProtNet.host[17].wlan[0].mac.dcf packetReceivedFromPeerMulticast:vector(packetBytes) ETV
attr interpolationmode none
attr source ieee80211Multicast(packetReceivedFromPeer)
attr title "packets received: multicast, vector(packetBytes)"
vector 229 BasicFloodProtNet.host[17].wlan[0].mac.dcf packetReceivedFromPeerBroadcast:vector(packetBytes) ETV
attr interpolationmode none
attr source ieee80211Broadcast(packetReceivedFromPeer)
attr title "packets received: broadcast, vector(packetBytes)"
vector 230 BasicFloodProtNet.host[17].wlan[0].mac.dcf packetReceivedFromPeerWithoutRetry:vector(packetBytes) ETV
attr interpolationmode none
attr source ieee80211NotRetry(packetReceivedFromPeer)
attr title "packets received: without retry, vector(packetBytes)"
vector 231 BasicFloodProtNet.host[17].wlan[0].mac packetSentToUpper:vector(packetBytes) ETV
attr interpolationmode none
attr title "packets sent to upper layer, vector(packetBytes)"
vector 232 BasicFloodProtNet.host[17].udp packetReceived:vector(packetBytes) ETV
attr interpolationmode none
attr source packetReceived
attr title "packets received, vector(packetBytes)"
vector 233 BasicFloodProtNet.host[17].udp passedUpPk:vector(count) ETV
attr interpolationmode none
attr source packetSentToUpper
attr title "packets passed up, vector(count)"
vector 234 BasicFloodProtNet.host[17].app[0] packetReceived:vector(packetBytes) ETV
attr interpolationmode none
attr source packetReceived
attr title "packets received, vector(packetBytes)"
vector 235 BasicFloodProtNet.host[17].app[0] throughput:vector ETV
attr source throughput(packetReceived)
attr title "throughput, vector"
attr unit bps
vector 236 BasicFloodProtNet.host[17].app[0] rcvdPkLifetime:vector ETV
attr interpolationmode none
attr source dataAge(packetReceived)
attr title "received packet lifetime, vector"
attr unit s
vector 237 BasicFloodProtNet.host[35].wlan[0].mac packetReceivedFromLower:vector(packetBytes) ETV
attr interpolationmode none
attr title "packets received from lower layer, vector(packetBytes)"
vector 238 BasicFloodProtNet.host[35].wlan[0].mac.dcf packetReceivedFromPeer:vector(packetBytes) ETV
attr interpolationmode none
attr title "packets received, vector(packetBytes)"
vector 239 BasicFloodProtNet.host[35].wlan[0].mac.dcf packetReceivedFromPeerMulticast:vector(packetBytes) ETV
attr interpolationmode none
attr source ieee80211Multicast(packetReceivedFromPeer)
attr title "packets received: multicast, vector(packetBytes)"
vector 240 BasicFloodProtNet.host[35].wlan[0].mac.dcf packetReceivedFromPeerBroadcast:vector(packetBytes) ETV
attr interpolationmode none
attr source ieee80211Broadcast(packetReceivedFromPeer)
attr title "packets received: broadcast, vector(packetBytes)"
vector 241 BasicFloodProtNet.host[35].wlan[0].mac.dcf packetReceivedFromPeerWithoutRetry:vector(packetBytes) ETV
attr interpolationmode none
attr source ieee80211NotRetry(packetReceivedFromPeer)
attr title "packets received: without retry, vector(packetBytes)"
vector 242 BasicFloodProtNet.host[35].wlan[0].mac packetSentToUpper:vector(packetBytes) ETV
attr interpolationmode none
attr title "packets sent to upper layer, vector(packetBytes)"
vector 243 BasicFloodProtNet.host[35].udp packetReceived:vector(packetBytes) ETV
attr interpolationmode none
attr source packetReceived
attr title "packets received, vector(packetBytes)"
vector 244 BasicFloodProtNet.host[35].udp passedUpPk:vector(count) ETV
attr interpolationmode none
attr source packetSentToUpper
attr title "packets passed up, vector(count)"
vector 245 BasicFloodProtNet.host[35].app[0] packetReceived:vector(packetBytes) ETV
attr interpolationmode none
attr source packetReceived
attr title "packets received, vector(packetBytes)"
vector 246 BasicFloodProtNet.host[35].app[0] throughput:vector ETV
attr source throughput(packetReceived)
attr title "throughput, vector"
attr unit bps
vector 247 BasicFloodProtNet.host[35].app[0] rcvdPkLifetime:vector ETV
attr interpolationmode none
attr source dataAge(packetReceived)
attr title "received packet lifetime, vector"
attr unit s
vector 248 BasicFloodProtNet.host[44].wlan[0].mac packetReceivedFromLower:vector(packetBytes) ETV
attr interpolationmode none
attr title "packets received from lower layer, vector(packetBytes)"
vector 249 BasicFloodProtNet.host[44].wlan[0].mac.dcf packetReceivedFromPeer:vector(packetBytes) ETV
attr interpolationmode none
attr title "packets received, vector(packetBytes)"
vector 250 BasicFloodProtNet.host[44].wlan[0].mac.dcf packetReceivedFromPeerMulticast:vector(packetBytes) ETV
attr interpolationmode none
attr source ieee80211Multicast(packetReceivedFromPeer)
attr title "packets received: multicast, vector(packetBytes)"
vector 251 BasicFloodProtNet.host[44].wlan[0].mac.dcf packetReceivedFromPeerBroadcast:vector(packetBytes) ETV
attr interpolationmode none
attr source ieee80211Broadcast(packetReceivedFromPeer)
attr title "packets received: broadcast, vector(packetBytes)"
vector 252 BasicFloodProtNet.host[44].wlan[0].mac.dcf packetReceivedFromPeerWithoutRetry:vector(packetBytes) ETV
attr interpolationmode none
attr source ieee80211NotRetry(packetReceivedFromPeer)
attr title "packets received: without retry, vector(packetBytes)"
vector 253 BasicFloodProtNet.host[44].wlan[0].mac packetSentToUpper:vector(packetBytes) ETV
attr interpolationmode none
attr title "packets sent to upper layer, vector(packetBytes)"
vector 254 BasicFloodProtNet.host[44].udp packetReceived:vector(packetBytes) ETV
attr interpolationmode none
attr source packetReceived
attr title "packets received, vector(packetBytes)"
vector 255 BasicFloodProtNet.host[44].udp passedUpPk:vector(count) ETV
attr interpolationmode none
attr source packetSentToUpper
attr title "packets passed up, vector(count)"
vector 256 BasicFloodProtNet.host[44].app[0] packetReceived:vector(packetBytes) ETV
attr interpolationmode none
attr source packetReceived
attr title "packets received, vector(packetBytes)"
vector 257 BasicFloodProtNet.host[44].app[0] throughput:vector ETV
attr source throughput(packetReceived)
attr title "throughput, vector"
attr unit bps
vector 258 BasicFloodProtNet.host[44].app[0] rcvdPkLifetime:vector ETV
attr interpolationmode none
attr source dataAge(packetReceived)
attr title "received packet lifetime, vector"
attr unit s
vector 259 BasicFloodProtNet.host[5].wlan[0].mac packetReceivedFromLower:vector(packetBytes) ETV
attr interpolationmode none
attr title "packets received from lower layer, vector(packetBytes)"
vector 260 BasicFloodProtNet.host[5].wlan[0].mac.dcf packetReceivedFromPeer:vector(packetBytes) ETV
attr interpolationmode none
attr title "packets received, vector(packetBytes)"
vector 261 BasicFloodProtNet.host[5].wlan[0].mac.dcf packetReceivedFromPeerMulticast:vector(packetBytes) ETV
attr interpolationmode none
attr source ieee80211Multicast(packetReceivedFromPeer)
attr title "packets received: multicast, vector(packetBytes)"
vector 262 BasicFloodProtNet.host[5].wlan[0].mac.dcf packetReceivedFromPeerBroadcast:vector(packetBytes) ETV
attr interpolationmode none
attr source ieee80211Broadcast(packetReceivedFromPeer)
attr title "packets received: broadcast, vector(packetBytes)"
vector 263 BasicFloodProtNet.host[5].wlan[0].mac.dcf packetReceivedFromPeerWithoutRetry:vector(packetBytes) ETV
attr interpolationmode none
attr source ieee80211NotRetry(packetReceivedFromPeer)
attr title "packets received: without retry, vector(packetBytes)"
vector 264 BasicFloodProtNet.host[5].wlan[0].mac packetSentToUpper:vector(packetBytes) ETV
attr interpolationmode none
attr title "packets sent to upper layer, vector(packetBytes)"
vector 265 BasicFloodProtNet.host[5].udp packetReceived:vector(packetBytes) ETV
attr interpolationmode none
attr source packetReceived
attr title "packets received, vector(packetBytes)"
vector 266 BasicFloodProtNet.host[5].udp passedUpPk:vector(count) ETV
attr interpolationmode none
attr source packetSentToUpper
attr title "packets passed up, vector(count)"
vector 267 BasicFloodProtNet.host[5].app[0] packetReceived:vector(packetBytes) ETV
attr interpolationmode none
attr source packetReceived
attr title "packets received, vector(packetBytes)"
vector 268 BasicFloodProtNet.host[5].app[0] throughput:vector ETV
attr source throughput(packetReceived)
attr title "throughput, vector"
attr unit bps
vector 269 BasicFloodProtNet.host[5].app[0] rcvdPkLifetime:vector ETV
attr interpolationmode none
attr source dataAge(packetReceived)
attr title "received packet lifetime, vector"
attr unit s
vector 270 BasicFloodProtNet.host[43].wlan[0].mac packetReceivedFromLower:vector(packetBytes) ETV
attr interpolationmode none
attr title "packets received from lower layer, vector(packetBytes)"
vector 271 BasicFloodProtNet.host[43].wlan[0].mac.dcf packetReceivedFromPeer:vector(packetBytes) ETV
attr interpolationmode none
attr title "packets received, vector(packetBytes)"
vector 272 BasicFloodProtNet.host[43].wlan[0].mac.dcf packetReceivedFromPeerMulticast:vector(packetBytes) ETV
attr interpolationmode none
attr source ieee80211Multicast(packetReceivedFromPeer)
attr title "packets received: multicast, vector(packetBytes)"
vector 273 BasicFloodProtNet.host[43].wlan[0].mac.dcf packetReceivedFromPeerBroadcast:vector(packetBytes) ETV
attr interpolationmode none
attr source ieee80211Broadcast(packetReceivedFromPeer)
attr title "packets received: broadcast, vector(packetBytes)"
vector 274 BasicFloodProtNet.host[43].wlan[0].mac.dcf packetReceivedFromPeerWithoutRetry:vector(packetBytes) ETV
attr interpolationmode none
attr source ieee80211NotRetry(packetReceivedFromPeer)
attr title "packets received: without retry, vector(packetBytes)"
vector 275 BasicFloodProtNet.host[43].wlan[0].mac packetSentToUpper:vector(packetBytes) ETV
attr interpolationmode none
attr title "packets sent to upper layer, vector(packetBytes)"
vector 276 BasicFloodProtNet.host[43].udp packetReceived:vector(packetBytes) ETV
attr interpolationmode none
attr source packetReceived
attr title "packets received, vector(packetBytes)"
vector 277 BasicFloodProtNet.host[43].udp passedUpPk:vector(count) ETV
attr interpolationmode none
attr source packetSentToUpper
attr title "packets passed up, vector(count)"
vector 278 BasicFloodProtNet.host[43].app[0] packetReceived:vector(packetBytes) ETV
attr interpolationmode none
attr source packetReceived
attr title "packets received, vector(packetBytes)"
vector 279 BasicFloodProtNet.host[43].app[0] throughput:vector ETV
attr source throughput(packetReceived)
attr title "throughput, vector"
attr unit bps
vector 280 BasicFloodProtNet.host[43].app[0] rcvdPkLifetime:vector ETV
attr interpolationmode none
attr source dataAge(packetReceived)
attr title "received packet lifetime, vector"
attr unit s
vector 281 BasicFloodProtNet.host[47].wlan[0].mac packetReceivedFromLower:vector(packetBytes) ETV
attr interpolationmode none
attr title "packets received from lower layer, vector(packetBytes)"
vector 282 BasicFloodProtNet.host[47].wlan[0].mac.dcf packetReceivedFromPeer:vector(packetBytes) ETV
attr interpolationmode none
attr title "packets received, vector(packetBytes)"
vector 283 BasicFloodProtNet.host[47].wlan[0].mac.dcf packetReceivedFromPeerMulticast:vector(packetBytes) ETV
attr interpolationmode none
attr source ieee80211Multicast(packetReceivedFromPeer)
attr title "packets received: multicast, vector(packetBytes)"
vector 284 BasicFloodProtNet.host[47].wlan[0].mac.dcf packetReceivedFromPeerBroadcast:vector(packetBytes) ETV
attr interpolationmode none
attr source ieee80211Broadcast(packetReceivedFromPeer)
attr title "packets received: broadcast, vector(packetBytes)"
vector 285 BasicFloodProtNet.host[47].wlan[0].mac.dcf packetReceivedFromPeerWithoutRetry:vector(packetBytes) ETV
attr interpolationmode none
attr source ieee80211NotRetry(packetReceivedFromPeer)
attr title "packets received: without retry, vector(packetBytes)"
vector 286 BasicFloodProtNet.host[47].wlan[0].mac packetSentToUpper:vector(packetBytes) ETV
attr interpolationmode none
attr title "packets sent to upper layer, vector(packetBytes)"
vector 287 BasicFloodProtNet.host[47].udp packetReceived:vector(packetBytes) ETV
attr interpolationmode none
attr source packetReceived
attr title "packets received, vector(packetBytes)"
vector 288 BasicFloodProtNet.host[47].udp passedUpPk:vector(count) ETV
attr interpolationmode none
attr source packetSentToUpper
attr title "packets passed up, vector(count)"
vector 289 BasicFloodProtNet.host[47].app[0] packetReceived:vector(packetBytes) ETV
attr interpolationmode none
attr source packetReceived
attr title "packets received, vector(packetBytes)"
vector 290 BasicFloodProtNet.host[47].app[0] throughput:vector ETV
attr source throughput(packetReceived)
attr title "throughput, vector"
attr unit bps
vector 291 BasicFloodProtNet.host[47].app[0] rcvdPkLifetime:vector ETV
attr interpolationmode none
attr source dataAge(packetReceived)
attr title "received packet lifetime, vector"
attr unit s
vector 292 BasicFloodProtNet.host[33].wlan[0].mac packetReceivedFromLower:vector(packetBytes) ETV
attr interpolationmode none
attr title "packets received from lower layer, vector(packetBytes)"
vector 293 BasicFloodProtNet.host[33].wlan[0].mac.dcf packetReceivedFromPeer:vector(packetBytes) ETV
attr interpolationmode none
attr title "packets received, vector(packetBytes)"
vector 294 BasicFloodProtNet.host[33].wlan[0].mac.dcf packetReceivedFromPeerMulticast:vector(packetBytes) ETV
attr interpolationmode none
attr source ieee80211Multicast(packetReceivedFromPeer)
attr title "packets received: multicast, vector(packetBytes)"
vector 295 BasicFloodProtNet.host[33].wlan[0].mac.dcf packetReceivedFromPeerBroadcast:vector(packetBytes) ETV
attr interpolationmode none
attr source ieee80211Broadcast(packetReceivedFromPeer)
attr title "packets received: broadcast, vector(packetBytes)"
vector 296 BasicFloodProtNet.host[33].wlan[0].mac.dcf packetReceivedFromPeerWithoutRetry:vector(packetBytes) ETV
attr interpolationmode none
attr source ieee80211NotRetry(packetReceivedFromPeer)
attr title "packets received: without retry, vector(packetBytes)"
vector 297 BasicFloodProtNet.host[33].wlan[0].mac packetSentToUpper:vector(packetBytes) ETV
attr interpolationmode none
attr title "packets sent to upper layer, vector(packetBytes)"
vector 298 BasicFloodProtNet.host[33].udp packetReceived:vector(packetBytes) ETV
attr interpolationmode none
attr source packetReceived
attr title "packets received, vector(packetBytes)"
vector 299 BasicFloodProtNet.host[33].udp passedUpPk:vector(count) ETV
attr interpolationmode none
attr source packetSentToUpper
attr title "packets passed up, vector(count)"
vector 300 BasicFloodProtNet.host[33].app[0] packetReceived:vector(packetBytes) ETV
attr interpolationmode none
attr source packetReceived
attr title "packets received, vector(packetBytes)"
vector 301 BasicFloodProtNet.host[33].app[0] throughput:vector ETV
attr source throughput(packetReceived)
attr title "throughput, vector"
attr unit bps
vector 302 BasicFloodProtNet.host[33].app[0] rcvdPkLifetime:vector ETV
attr interpolationmode none
attr source dataAge(packetReceived)
attr title "received packet lifetime, vector"
attr unit s
vector 303 BasicFloodProtNet.host[22].wlan[0].mac packetReceivedFromLower:vector(packetBytes) ETV
attr interpolationmode none
attr title "packets received from lower layer, vector(packetBytes)"
vector 304 BasicFloodProtNet.host[22].wlan[0].mac.dcf packetReceivedFromPeer:vector(packetBytes) ETV
attr interpolationmode none
attr title "packets received, vector(packetBytes)"
vector 305 BasicFloodProtNet.host[22].wlan[0].mac.dcf packetReceivedFromPeerMulticast:vector(packetBytes) ETV
attr interpolationmode none
attr source ieee80211Multicast(packetReceivedFromPeer)
attr title "packets received: multicast, vector(packetBytes)"
vector 306 BasicFloodProtNet.host[22].wlan[0].mac.dcf packetReceivedFromPeerBroadcast:vector(packetBytes) ETV
attr interpolationmode none
attr source ieee80211Broadcast(packetReceivedFromPeer)
attr title "packets received: broadcast, vector(packetBytes)"
vector 307 BasicFloodProtNet.host[22].wlan[0].mac.dcf packetReceivedFromPeerWithoutRetry:vector(packetBytes) ETV
attr interpolationmode none
attr source ieee80211NotRetry(packetReceivedFromPeer)
attr title "packets received: without retry, vector(packetBytes)"
vector 308 BasicFloodProtNet.host[22].wlan[0].mac packetSentToUpper:vector(packetBytes) ETV
attr interpolationmode none
attr title "packets sent to upper layer, vector(packetBytes)"
vector 309 BasicFloodProtNet.host[22].udp packetReceived:vector(packetBytes) ETV
attr interpolationmode none
attr source packetReceived
attr title "packets received, vector(packetBytes)"
vector 310 BasicFloodProtNet.host[22].udp passedUpPk:vector(count) ETV
attr interpolationmode none
attr source packetSentToUpper
attr title "packets passed up, vector(count)"
vector 311 BasicFloodProtNet.host[22].app[0] packetReceived:vector(packetBytes) ETV
attr interpolationmode none
attr source packetReceived
attr title "packets received, vector(packetBytes)"
vector 312 BasicFloodProtNet.host[22].app[0] throughput:vector ETV
attr source throughput(packetReceived)
attr title "throughput, vector"
attr unit bps
vector 313 BasicFloodProtNet.host[22].app[0] rcvdPkLifetime:vector ETV
attr interpolationmode none
attr source dataAge(packetReceived)
attr title "received packet lifetime, vector"
attr unit s
vector 314 BasicFloodProtNet.host[26].wlan[0].mac packetReceivedFromLower:vector(packetBytes) ETV
attr interpolationmode none
attr title "packets received from lower layer, vector(packetBytes)"
vector 315 BasicFloodProtNet.host[26].wlan[0].mac.dcf packetReceivedFromPeer:vector(packetBytes) ETV
attr interpolationmode none
attr title "packets received, vector(packetBytes)"
vector 316 BasicFloodProtNet.host[26].wlan[0].mac.dcf packetReceivedFromPeerMulticast:vector(packetBytes) ETV
attr interpolationmode none
attr source ieee80211Multicast(packetReceivedFromPeer)
attr title "packets received: multicast, vector(packetBytes)"
vector 317 BasicFloodProtNet.host[26].wlan[0].mac.dcf packetReceivedFromPeerBroadcast:vector(packetBytes) ETV
attr interpolationmode none
attr source ieee80211Broadcast(packetReceivedFromPeer)
attr title "packets received: broadcast, vector(packetBytes)"
vector 318 BasicFloodProtNet.host[26].wlan[0].mac.dcf packetReceivedFromPeerWithoutRetry:vector(packetBytes) ETV
attr interpolationmode none
attr source ieee80211NotRetry(packetReceivedFromPeer)
attr title "packets received: without retry, vector(packetBytes)"
vector 319 BasicFloodProtNet.host[26].wlan[0].mac packetSentToUpper:vector(packetBytes) ETV
attr interpolationmode none
attr title "packets sent to upper layer, vector(packetBytes)"
vector 320 BasicFloodProtNet.host[26].udp packetReceived:vector(packetBytes) ETV
attr interpolationmode none
attr source packetReceived
attr title "packets received, vector(packetBytes)"
vector 321 BasicFloodProtNet.host[26].udp passedUpPk:vector(count) ETV
attr interpolationmode none
attr source packetSentToUpper
attr title "packets passed up, vector(count)"
vector 322 BasicFloodProtNet.host[26].app[0] packetReceived:vector(packetBytes) ETV
attr interpolationmode none
attr source packetReceived
attr title "packets received, vector(packetBytes)"
vector 323 BasicFloodProtNet.host[26].app[0] throughput:vector ETV
attr source throughput(packetReceived)
attr title "throughput, vector"
attr unit bps
vector 324 BasicFloodProtNet.host[26].app[0] rcvdPkLifetime:vector ETV
attr interpolationmode none
attr source dataAge(packetReceived)
attr title "received packet lifetime, vector"
attr unit s
vector 325 BasicFloodProtNet.host[41].wlan[0].mac packetReceivedFromLower:vector(packetBytes) ETV
attr interpolationmode none
attr title "packets received from lower layer, vector(packetBytes)"
vector 326 BasicFloodProtNet.host[41].wlan[0].mac.dcf packetReceivedFromPeer:vector(packetBytes) ETV
attr interpolationmode none
attr title "packets received, vector(packetBytes)"
vector 327 BasicFloodProtNet.host[41].wlan[0].mac.dcf packetReceivedFromPeerMulticast:vector(packetBytes) ETV
attr interpolationmode none
attr source ieee80211Multicast(packetReceivedFromPeer)
attr title "packets received: multicast, vector(packetBytes)"
vector 328 BasicFloodProtNet.host[41].wlan[0].mac.dcf packetReceivedFromPeerBroadcast:vector(packetBytes) ETV
attr interpolationmode none
attr source ieee80211Broadcast(packetReceivedFromPeer)
attr title "packets received: broadcast, vector(packetBytes)"
vector 329 BasicFloodProtNet.host[41].wlan[0].mac.dcf packetReceivedFromPeerWithoutRetry:vector(packetBytes) ETV
attr interpolationmode none
attr source ieee80211NotRetry(packetReceivedFromPeer)
attr title "packets received: without retry, vector(packetBytes)"
vector 330 BasicFloodProtNet.host[41].wlan[0].mac packetSentToUpper:vector(packetBytes) ETV
attr interpolationmode none
attr title "packets sent to upper layer, vector(packetBytes)"
vector 331 BasicFloodProtNet.host[41].udp packetReceived:vector(packetBytes) ETV
attr interpolationmode none
attr source packetReceived
attr title "packets received, vector(packetBytes)"
vector 332 BasicFloodProtNet.host[41].udp passedUpPk:vector(count) ETV
attr interpolationmode none
attr source packetSentToUpper
attr title "packets passed up, vector(count)"
vector 333 BasicFloodProtNet.host[41].app[0] packetReceived:vector(packetBytes) ETV
attr interpolationmode none
attr source packetReceived
attr title "packets received, vector(packetBytes)"
vector 334 BasicFloodProtNet.host[41].app[0] throughput:vector ETV
attr source throughput(packetReceived)
attr title "throughput, vector"
attr unit bps
vector 335 BasicFloodProtNet.host[41].app[0] rcvdPkLifetime:vector ETV
attr interpolationmode none
attr source dataAge(packetReceived)
attr title "received packet lifetime, vector"
attr unit s
vector 336 BasicFloodProtNet.host[25].wlan[0].mac packetReceivedFromLower:vector(packetBytes) ETV
attr interpolationmode none
attr title "packets received from lower layer, vector(packetBytes)"
vector 337 BasicFloodProtNet.host[25].wlan[0].mac.dcf packetReceivedFromPeer:vector(packetBytes) ETV
attr interpolationmode none
attr title "packets received, vector(packetBytes)"
vector 338 BasicFloodProtNet.host[25].wlan[0].mac.dcf packetReceivedFromPeerMulticast:vector(packetBytes) ETV
attr interpolationmode none
attr source ieee80211Multicast(packetReceivedFromPeer)
attr title "packets received: multicast, vector(packetBytes)"
vector 339 BasicFloodProtNet.host[25].wlan[0].mac.dcf packetReceivedFromPeerBroadcast:vector(packetBytes) ETV
attr interpolationmode none
attr source ieee80211Broadcast(packetReceivedFromPeer)
attr title "packets received: broadcast, vector(packetBytes)"
vector 340 BasicFloodProtNet.host[25].wlan[0].mac.dcf packetReceivedFromPeerWithoutRetry:vector(packetBytes) ETV
attr interpolationmode none
attr source ieee80211NotRetry(packetReceivedFromPeer)
attr title "packets received: without retry, vector(packetBytes)"
vector 341 BasicFloodProtNet.host[25].wlan[0].mac packetSentToUpper:vector(packetBytes) ETV
attr interpolationmode none
attr title "packets sent to upper layer, vector(packetBytes)"
vector 342 BasicFloodProtNet.host[25].udp packetReceived:vector(packetBytes) ETV
attr interpolationmode none
attr source packetReceived
attr title "packets received, vector(packetBytes)"
vector 343 BasicFloodProtNet.host[25].udp passedUpPk:vector(count) ETV
attr interpolationmode none
attr source packetSentToUpper
attr title "packets passed up, vector(count)"
vector 344 BasicFloodProtNet.host[25].app[0] packetReceived:vector(packetBytes) ETV
attr interpolationmode none
attr source packetReceived
attr title "packets received, vector(packetBytes)"
vector 345 BasicFloodProtNet.host[25].app[0] throughput:vector ETV
attr source throughput(packetReceived)
attr title "throughput, vector"
attr unit bps
vector 346 BasicFloodProtNet.host[25].app[0] rcvdPkLifetime:vector ETV
attr interpolationmode none
attr source dataAge(packetReceived)
attr title "received packet lifetime, vector"
attr unit s
vector 347 BasicFloodProtNet.host[37].wlan[0].mac packetReceivedFromLower:vector(packetBytes) ETV
attr interpolationmode none
attr title "packets received from lower layer, vector(packetBytes)"
vector 348 BasicFloodProtNet.host[37].wlan[0].mac.dcf packetReceivedFromPeer:vector(packetBytes) ETV
attr interpolationmode none
attr title "packets received, vector(packetBytes)"
vector 349 BasicFloodProtNet.host[37].wlan[0].mac.dcf packetReceivedFromPeerMulticast:vector(packetBytes) ETV
attr interpolationmode none
attr source ieee80211Multicast(packetReceivedFromPeer)
attr title "packets received: multicast, vector(packetBytes)"
vector 350 BasicFloodProtNet.host[37].wlan[0].mac.dcf packetReceivedFromPeerBroadcast:vector(packetBytes) ETV
attr interpolationmode none
attr source ieee80211Broadcast(packetReceivedFromPeer)
attr title "packets received: broadcast, vector(packetBytes)"
vector 351 BasicFloodProtNet.host[37].wlan[0].mac.dcf packetReceivedFromPeerWithoutRetry:vector(packetBytes) ETV
attr interpolationmode none
attr source ieee80211NotRetry(packetReceivedFromPeer)
attr title "packets received: without retry, vector(packetBytes)"
vector 352 BasicFloodProtNet.host[37].wlan[0].mac packetSentToUpper:vector(packetBytes) ETV
attr interpolationmode none
attr title "packets sent to upper layer, vector(packetBytes)"
vector 353 BasicFloodProtNet.host[37].udp packetReceived:vector(packetBytes) ETV
attr interpolationmode none
attr source packetReceived
attr title "packets received, vector(packetBytes)"
vector 354 BasicFloodProtNet.host[37].udp passedUpPk:vector(count) ETV
attr interpolationmode none
attr source packetSentToUpper
attr title "packets passed up, vector(count)"
vector 355 BasicFloodProtNet.host[37].app[0] packetReceived:vector(packetBytes) ETV
attr interpolationmode none
attr source packetReceived
attr title "packets received, vector(packetBytes)"
vector 356 BasicFloodProtNet.host[37].app[0] throughput:vector ETV
attr source throughput(packetReceived)
attr title "throughput, vector"
attr unit bps
vector 357 BasicFloodProtNet.host[37].app[0] rcvdPkLifetime:vector ETV
attr interpolationmode none
attr source dataAge(packetReceived)
attr title "received packet lifetime, vector"
attr unit s
vector 358 BasicFloodProtNet.host[14].wlan[0].mac packetReceivedFromLower:vector(packetBytes) ETV
attr interpolationmode none
attr title "packets received from lower layer, vector(packetBytes)"
vector 359 BasicFloodProtNet.host[14].wlan[0].mac.dcf packetReceivedFromPeer:vector(packetBytes) ETV
attr interpolationmode none
attr title "packets received, vector(packetBytes)"
vector 360 BasicFloodProtNet.host[14].wlan[0].mac.dcf packetReceivedFromPeerMulticast:vector(packetBytes) ETV
attr interpolationmode none
attr source ieee80211Multicast(packetReceivedFromPeer)
attr title "packets received: multicast, vector(packetBytes)"
vector 361 BasicFloodProtNet.host[14].wlan[0].mac.dcf packetReceivedFromPeerBroadcast:vector(packetBytes) ETV
attr interpolationmode none
attr source ieee80211Broadcast(packetReceivedFromPeer)
attr title "packets received: broadcast, vector(packetBytes)"
vector 362 BasicFloodProtNet.host[14].wlan[0].mac.dcf packetReceivedFromPeerWithoutRetry:vector(packetBytes) ETV
attr interpolationmode none
attr source ieee80211NotRetry(packetReceivedFromPeer)
attr title "packets received: without retry, vector(packetBytes)"
vector 363 BasicFloodProtNet.host[14].wlan[0].mac packetSentToUpper:vector(packetBytes) ETV
attr interpolationmode none
attr title "packets sent to upper layer, vector(packetBytes)"
vector 364 BasicFloodProtNet.host[14].udp packetReceived:vector(packetBytes) ETV
attr interpolationmode none
attr source packetReceived
attr title "packets received, vector(packetBytes)"
vector 365 BasicFloodProtNet.host[14].udp passedUpPk:vector(count) ETV
attr interpolationmode none
attr source packetSentToUpper
attr title "packets passed up, vector(count)"
vector 366 BasicFloodProtNet.host[14].app[0] packetReceived:vector(packetBytes) ETV
attr interpolationmode none
attr source packetReceived
attr title "packets received, vector(packetBytes)"
vector 367 BasicFloodProtNet.host[14].app[0] throughput:vector ETV
attr source throughput(packetReceived)
attr title "throughput, vector"
attr unit bps
vector 368 BasicFloodProtNet.host[14].app[0] rcvdPkLifetime:vector ETV
attr interpolationmode none
attr source dataAge(packetReceived)
attr title "received packet lifetime, vector"
attr unit s
vector 369 BasicFloodProtNet.host[13].wlan[0].mac packetReceivedFromLower:vector(packetBytes) ETV
attr interpolationmode none
attr title "packets received from lower layer, vector(packetBytes)"
vector 370 BasicFloodProtNet.host[13].wlan[0].mac.dcf packetReceivedFromPeer:vector(packetBytes) ETV
attr interpolationmode none
attr title "packets received, vector(packetBytes)"
vector 371 BasicFloodProtNet.host[13].wlan[0].mac.dcf packetReceivedFromPeerMulticast:vector(packetBytes) ETV
attr interpolationmode none
attr source ieee80211Multicast(packetReceivedFromPeer)
attr title "packets received: multicast, vector(packetBytes)"
vector 372 BasicFloodProtNet.host[13].wlan[0].mac.dcf packetReceivedFromPeerBroadcast:vector(packetBytes) ETV
attr interpolationmode none
attr source ieee80211Broadcast(packetReceivedFromPeer)
attr title "packets received: broadcast, vector(packetBytes)"
vector 373 BasicFloodProtNet.host[13].wlan[0].mac.dcf packetReceivedFromPeerWithoutRetry:vector(packetBytes) ETV
attr interpolationmode none
attr source ieee80211NotRetry(packetReceivedFromPeer)
attr title "packets received: without retry, vector(packetBytes)"
vector 374 BasicFloodProtNet.host[13].wlan[0].mac packetSentToUpper:vector(packetBytes) ETV
attr interpolationmode none
attr title "packets sent to upper layer, vector(packetBytes)"
vector 375 BasicFloodProtNet.host[13].udp packetReceived:vector(packetBytes) ETV
attr interpolationmode none
attr source packetReceived
attr title "packets received, vector(packetBytes)"
vector 376 BasicFloodProtNet.host[13].udp passedUpPk:vector(count) ETV
attr interpolationmode none
attr source packetSentToUpper
attr title "packets passed up, vector(count)"
vector 377 BasicFloodProtNet.host[13].app[0] packetReceived:vector(packetBytes) ETV
attr interpolationmode none
attr source packetReceived
attr title "packets received, vector(packetBytes)"
vector 378 BasicFloodProtNet.host[13].app[0] throughput:vector ETV
attr source throughput(packetReceived)
attr title "throughput, vector"
attr unit bps
vector 379 BasicFloodProtNet.host[13].app[0] rcvdPkLifetime:vector ETV
attr interpolationmode none
attr source dataAge(packetReceived)
attr title "received packet lifetime, vector"
attr unit s
vector 380 BasicFloodProtNet.host[27].wlan[0].mac packetReceivedFromLower:vector(packetBytes) ETV
attr interpolationmode none
attr title "packets received from lower layer, vector(packetBytes)"
vector 381 BasicFloodProtNet.host[27].wlan[0].mac.dcf packetReceivedFromPeer:vector(packetBytes) ETV
attr interpolationmode none
attr title "packets received, vector(packetBytes)"
vector 382 BasicFloodProtNet.host[27].wlan[0].mac.dcf packetReceivedFromPeerMulticast:vector(packetBytes) ETV
attr interpolationmode none
attr source ieee80211Multicast(packetReceivedFromPeer)
attr title "packets received: multicast, vector(packetBytes)"
vector 383 BasicFloodProtNet.host[27].wlan[0].mac.dcf packetReceivedFromPeerBroadcast:vector(packetBytes) ETV
attr interpolationmode none
attr source ieee80211Broadcast(packetReceivedFromPeer)
attr title "packets received: broadcast, vector(packetBytes)"
vector 384 BasicFloodProtNet.host[27].wlan[0].mac.dcf packetReceivedFromPeerWithoutRetry:vector(packetBytes) ETV
attr interpolationmode none
attr source ieee80211NotRetry(packetReceivedFromPeer)
attr title "packets received: without retry, vector(packetBytes)"
vector 385 BasicFloodProtNet.host[27].wlan[0].mac packetSentToUpper:vector(packetBytes) ETV
attr interpolationmode none
attr title "packets sent to upper layer, vector(packetBytes)"
vector 386 BasicFloodProtNet.host[27].udp packetReceived:vector(packetBytes) ETV
attr interpolationmode none
attr source packetReceived
attr title "packets received, vector(packetBytes)"
vector 387 BasicFloodProtNet.host[27].udp passedUpPk:vector(count) ETV
attr interpolationmode none
attr source packetSentToUpper
attr title "packets passed up, vector(count)"
vector 388 BasicFloodProtNet.host[27].app[0] packetReceived:vector(packetBytes) ETV
attr interpolationmode none
attr source packetReceived
attr title "packets received, vector(packetBytes)"
vector 389 BasicFloodProtNet.host[27].app[0] throughput:vector ETV
attr source throughput(packetReceived)
attr title "throughput, vector"
attr unit bps
vector 390 BasicFloodProtNet.host[27].app[0] rcvdPkLifetime:vector ETV
attr interpolationmode none
attr source dataAge(packetReceived)
attr title "received packet lifetime, vector"
attr unit s
vector 391 BasicFloodProtNet.host[30].wlan[0].mac packetReceivedFromLower:vector(packetBytes) ETV
attr interpolationmode none
attr title "packets received from lower layer, vector(packetBytes)"
vector 392 BasicFloodProtNet.host[30].wlan[0].mac.dcf packetReceivedFromPeer:vector(packetBytes) ETV
attr interpolationmode none
attr title "packets received, vector(packetBytes)"
vector 393 BasicFloodProtNet.host[30].wlan[0].mac.dcf packetReceivedFromPeerMulticast:vector(packetBytes) ETV
attr interpolationmode none
attr source ieee80211Multicast(packetReceivedFromPeer)
attr title "packets received: multicast, vector(packetBytes)"
vector 394 BasicFloodProtNet.host[30].wlan[0].mac.dcf packetReceivedFromPeerBroadcast:vector(packetBytes) ETV
attr interpolationmode none
attr source ieee80211Broadcast(packetReceivedFromPeer)
attr title "packets received: broadcast, vector(packetBytes)"
vector 395 BasicFloodProtNet.host[30].wlan[0].mac.dcf packetReceivedFromPeerWithoutRetry:vector(packetBytes) ETV
attr interpolationmode none
attr source ieee80211NotRetry(packetReceivedFromPeer)
attr title "packets received: without retry, vector(packetBytes)"
vector 396 BasicFloodProtNet.host[30].wlan[0].mac packetSentToUpper:vector(packetBytes) ETV
attr interpolationmode none
attr title "packets sent to upper layer, vector(packetBytes)"
vector 397 BasicFloodProtNet.host[30].udp packetReceived:vector(packetBytes) ETV
attr interpolationmode none
attr source packetReceived
attr title "packets received, vector(packetBytes)"
vector 398 BasicFloodProtNet.host[30].udp passedUpPk:vector(count) ETV
attr interpolationmode none
attr source packetSentToUpper
attr title "packets passed up, vector(count)"
vector 399 BasicFloodProtNet.host[30].app[0] packetReceived:vector(packetBytes) ETV
attr interpolationmode none
attr source packetReceived
attr title "packets received, vector(packetBytes)"
vector 400 BasicFloodProtNet.host[30].app[0] throughput:vector ETV
attr source throughput(packetReceived)
attr title "throughput, vector"
attr unit bps
vector 401 BasicFloodProtNet.host[30].app[0] rcvdPkLifetime:vector ETV
attr interpolationmode none
attr source dataAge(packetReceived)
attr title "received packet lifetime, vector"
attr unit s
vector 402 BasicFloodProtNet.host[24].wlan[0].mac packetReceivedFromLower:vector(packetBytes) ETV
attr interpolationmode none
attr title "packets received from lower layer, vector(packetBytes)"
vector 403 BasicFloodProtNet.host[24].wlan[0].mac.dcf packetReceivedFromPeer:vector(packetBytes) ETV
attr interpolationmode none
attr title "packets received, vector(packetBytes)"
vector 404 BasicFloodProtNet.host[24].wlan[0].mac.dcf packetReceivedFromPeerMulticast:vector(packetBytes) ETV
attr interpolationmode none
attr source ieee80211Multicast(packetReceivedFromPeer)
attr title "packets received: multicast, vector(packetBytes)"
vector 405 BasicFloodProtNet.host[24].wlan[0].mac.dcf packetReceivedFromPeerBroadcast:vector(packetBytes) ETV
attr interpolationmode none
attr source ieee80211Broadcast(packetReceivedFromPeer)
attr title "packets received: broadcast, vector(packetBytes)"
vector 406 BasicFloodProtNet.host[24].wlan[0].mac.dcf packetReceivedFromPeerWithoutRetry:vector(packetBytes) ETV
attr interpolationmode none
attr source ieee80211NotRetry(packetReceivedFromPeer)
attr title "packets received: without retry, vector(packetBytes)"
vector 407 BasicFloodProtNet.host[24].wlan[0].mac packetSentToUpper:vector(packetBytes) ETV
attr interpolationmode none
attr title "packets sent to upper layer, vector(packetBytes)"
vector 408 BasicFloodProtNet.host[24].udp packetReceived:vector(packetBytes) ETV
attr interpolationmode none
attr source packetReceived
attr title "packets received, vector(packetBytes)"
vector 409 BasicFloodProtNet.host[24].udp passedUpPk:vector(count) ETV
attr interpolationmode none
attr source packetSentToUpper
attr title "packets passed up, vector(count)"
vector 410 BasicFloodProtNet.host[24].app[0] packetReceived:vector(packetBytes) ETV
attr interpolationmode none
attr source packetReceived
attr title "packets received, vector(packetBytes)"
vector 411 BasicFloodProtNet.host[24].app[0] throughput:vector ETV
attr source throughput(packetReceived)
attr title "throughput, vector"
attr unit bps
vector 412 BasicFloodProtNet.host[24].app[0] rcvdPkLifetime:vector ETV
attr interpolationmode none
attr source dataAge(packetReceived)
attr title "received packet lifetime, vector"
attr unit s
[...]
1267	8492	1.968588184737	264
1268	8492	1.968588184737	1
1268	8544	1.969836184737	0
1269	8493	1.968588184737	1
1269	8494	1.968588184737	2
1269	8544	1.969836184737	1
1269	8545	1.969836184737	0
1270	8544	1.969836184737	264
1271	8544	1.969836184737	264
1272	8544	1.969836184737	264
1273	8544	1.969836184737	264
1274	8544	1.969836184737	0.001248
1275	8807	1.981012862732	200
1276	8808	1.981012862732	208
1277	8810	1.981012862732	228
1278	8810	1.981012862732	228
1279	8813	1.981012862732	236
1280	8813	1.981012862732	264
1281	8813	1.981012862732	1
1281	8817	1.981012862732	0
1282	8813	1.981012862732	5
1283	8813	1.981012862732	1
1283	8816	1.981012862732	0
1284	8817	1.981012862732	264
1285	8817	1.981012862732	0
1286	8817	1.981012862732	1
1286	8869	1.982260862732	0
1287	8817	1.981012862732	2000000
1288	8817	1.981012862732	264
1289	8817	1.981012862732	1
1289	8869	1.982260862732	0
1290	8818	1.981012862732	1
1290	8819	1.981012862732	2
1290	8869	1.982260862732	1
1290	8870	1.982260862732	0
1291	8869	1.982260862732	264
1292	8869	1.982260862732	264
1293	8869	1.982260862732	264
1294	8869	1.982260862732	264
1295	8869	1.982260862732	0.001248
1296	9165	1.988575153758	200
1297	9166	1.988575153758	208
1298	9168	1.988575153758	228
1299	9168	1.988575153758	228
1300	9171	1.988575153758	236
1301	9171	1.988575153758	264
1302	9171	1.988575153758	1
1302	9175	1.988575153758	0
1303	9171	1.988575153758	0
1304	9171	1.988575153758	1
1304	9174	1.988575153758	0
1305	9175	1.988575153758	264
1306	9175	1.988575153758	0
1307	9175	1.988575153758	1
1307	9227	1.989823153758	0
1308	9175	1.988575153758	2000000
1309	9175	1.988575153758	264
1310	9175	1.988575153758	1
1310	9227	1.989823153758	0
1311	9176	1.988575153758	1
1311	9177	1.988575153758	2
1311	9227	1.989823153758	1
1311	9228	1.989823153758	0
1312	9227	1.989823153758	264
1313	9227	1.989823153758	264
1314	9227	1.989823153758	264
1315	9227	1.989823153758	264
1316	9227	1.989823153758	0.001248
1317	9504	1.992422777882	200
1318	9505	1.992422777882	208
1319	9507	1.992422777882	228
1320	9507	1.992422777882	228
1321	9510	1.992422777882	236
1322	9510	1.992422777882	264
1323	9510	1.992422777882	1
1323	9514	1.992422777882	0
1324	9510	1.992422777882	1
1325	9510	1.992422777882	1
1325	9513	1.992422777882	0
1326	9514	1.992422777882	264
1327	9514	1.992422777882	0
1328	9514	1.992422777882	1
1328	9566	1.993670777882	0
1329	9514	1.992422777882	2000000
1330	9514	1.992422777882	264
1331	9514	1.992422777882	1
1331	9566	1.993670777882	0
1332	9515	1.992422777882	1
1332	9516	1.992422777882	2
1332	9566	1.993670777882	1
1332	9567	1.993670777882	0
1333	9566	1.993670777882	264
1334	9566	1.993670777882	264
1335	9566	1.993670777882	264
1336	9566	1.993670777882	264
1337	9566	1.993670777882	0.001248
1338	9842	1.998477619415	200
1339	9843	1.998477619415	208
1340	9845	1.998477619415	228
1341	9845	1.998477619415	228
1342	9848	1.998477619415	236
1343	9848	1.998477619415	264
1344	9848	1.998477619415	1
1344	9852	1.998477619415	0
1345	9848	1.998477619415	5
1346	9848	1.998477619415	1
1346	9851	1.998477619415	0
1347	9852	1.998477619415	264
1348	9852	1.998477619415	0
1349	9852	1.998477619415	1
1349	9913	1.999725619415	0
1350	9852	1.998477619415	2000000
1351	9852	1.998477619415	264
1352	9852	1.998477619415	1
1352	9913	1.999725619415	0
1353	9853	1.998477619415	1
1353	9854	1.998477619415	2
1353	9913	1.999725619415	1
1353	9914	1.999725619415	0
1354	9904	1.998864789969	200
1355	9905	1.998864789969	208
1356	9907	1.998864789969	228
1357	9907	1.998864789969	228
1358	9910	1.998864789969	236
1359	9910	1.998864789969	264
1360	9910	1.998864789969	1
1360	10210	1.999796095097	0
1361	9910	1.998864789969	1
1362	9913	1.999725619415	264
1363	9913	1.999725619415	264
1364	9913	1.999725619415	264
1365	9913	1.999725619415	264
1366	9913	1.999725619415	0.001248
1367	10155	1.999726095097	1
1367	10209	1.999796095097	0
1368	10210	1.999796095097	264
1369	10210	1.999796095097	0.000931305128
1370	10210	1.999796095097	1
1370	10281	2.001044095097	0
1371	10210	1.999796095097	2000000
1372	10210	1.999796095097	264
1373	10210	1.999796095097	1
1373	10281	2.001044095097	0
1374	10211	1.999796095097	1
1374	10212	1.999796095097	2
1374	10281	2.001044095097	1
1374	10282	2.001044095097	0
1375	10263	2.000412959961	200
1376	10264	2.000412959961	208
1377	10266	2.000412959961	228
1378	10266	2.000412959961	228
1379	10269	2.000412959961	236
1380	10269	2.000412959961	264
1381	10269	2.000412959961	1
1381	10927	2.002452787793	0
1382	10269	2.000412959961	3
1383	10272	2.000693504117	200
1384	10273	2.000693504117	208
1385	10275	2.000693504117	228
1386	10275	2.000693504117	228
1387	10278	2.000693504117	236
1388	10278	2.000693504117	264
1389	10278	2.000693504117	1
1389	10578	2.001094402605	0
1390	10278	2.000693504117	0
1391	10281	2.001044095097	264
1392	10281	2.001044095097	264
1393	10281	2.001044095097	264
1394	10281	2.001044095097	264
1395	10281	2.001044095097	0.001248
1396	10307	2.001044216255	1
1396	10610	2.001094787793	0
1396	10806	2.002342787793	1
1396	10926	2.002452787793	0
1397	10361	2.001044402605	1
1397	10577	2.001094402605	0
1398	10578	2.001094402605	264
1399	10578	2.001094402605	0.000400898488
1400	10578	2.001094402605	1
1400	10630	2.002342402605	0
1401	10578	2.001094402605	2000000
1402	10578	2.001094402605	264
1403	10578	2.001094402605	1
1403	10630	2.002342402605	0
1404	10579	2.001094402605	1
1404	10580	2.001094402605	2
1404	10630	2.002342402605	1
1404	10631	2.002342402605	0
1405	10630	2.002342402605	264
1406	10630	2.002342402605	264
1407	10630	2.002342402605	264
1408	10630	2.002342402605	264
1409	10630	2.002342402605	0.001248
1410	10927	2.002452787793	264
1411	10927	2.002452787793	0.002039827832
1412	10927	2.002452787793	1
1412	10980	2.003700787793	0
1413	10927	2.002452787793	2000000
1414	10927	2.002452787793	264
1415	10927	2.002452787793	1
1415	10980	2.003700787793	0
1416	10928	2.002452787793	1
1416	10929	2.002452787793	2
1416	10980	2.003700787793	1
1416	10981	2.003700787793	0
1417	10980	2.003700787793	264
1418	10980	2.003700787793	264
1419	10980	2.003700787793	264
1420	10980	2.003700787793	264
1421	10980	2.003700787793	0.001248
1422	11266	2.00566463228	200
1423	11267	2.00566463228	208
1424	11269	2.00566463228	228
1425	11269	2.00566463228	228
1426	11272	2.00566463228	236
1427	11272	2.00566463228	264
1428	11272	2.00566463228	1
1428	11276	2.00566463228	0
1429	11272	2.00566463228	7
1430	11272	2.00566463228	1
1430	11275	2.00566463228	0
1431	11276	2.00566463228	264
1432	11276	2.00566463228	0
1433	11276	2.00566463228	1
1433	11328	2.00691263228	0
1434	11276	2.00566463228	2000000
1435	11276	2.00566463228	264
1436	11276	2.00566463228	1
1436	11328	2.00691263228	0
1437	11277	2.00566463228	1
1437	11278	2.00566463228	2
1437	11328	2.00691263228	1
1437	11329	2.00691263228	0
1438	11328	2.00691263228	264
1439	11328	2.00691263228	264
1440	11328	2.00691263228	264
1441	11328	2.00691263228	264
1442	11328	2.00691263228	0.001248
1443	11604	2.007888152041	200
1444	11605	2.007888152041	208
1445	11607	2.007888152041	228
1446	11607	2.007888152041	228
1447	11610	2.007888152041	236
1448	11610	2.007888152041	264
1449	11610	2.007888152041	1
1449	11614	2.007888152041	0
1450	11610	2.007888152041	5
1451	11610	2.007888152041	1
1451	11613	2.007888152041	0
1452	11614	2.007888152041	264
1453	11614	2.007888152041	0
1454	11614	2.007888152041	1
1454	11666	2.009136152041	0
1455	11614	2.007888152041	2000000
1456	11614	2.007888152041	264
1457	11614	2.007888152041	1
1457	11666	2.009136152041	0
1458	11615	2.007888152041	1
1458	11616	2.007888152041	2
1458	11666	2.009136152041	1
1458	11667	2.009136152041	0
1459	11666	2.009136152041	264
1460	11666	2.009136152041	264
1461	11666	2.009136152041	264
1462	11666	2.009136152041	264
1463	11666	2.009136152041	0.001248
1464	11941	2.014895546099	200
1465	11942	2.014895546099	208
1466	11944	2.014895546099	228
1467	11944	2.014895546099	228
1468	11947	2.014895546099	236
1469	11947	2.014895546099	264
1470	11947	2.014895546099	1
1470	11951	2.014895546099	0
1471	11947	2.014895546099	6
1472	11947	2.014895546099	1
1472	11950	2.014895546099	0
1473	11951	2.014895546099	264
1474	11951	2.014895546099	0
1475	11951	2.014895546099	1
1475	12003	2.016143546099	0
1476	11951	2.014895546099	2000000
1477	11951	2.014895546099	264
1478	11951	2.014895546099	1
1478	12003	2.016143546099	0
1479	11952	2.014895546099	1
1479	11953	2.014895546099	2
1479	12003	2.016143546099	1
1479	12004	2.016143546099	0
1480	12003	2.016143546099	264
1481	12003	2.016143546099	264
1482	12003	2.016143546099	264
1483	12003	2.016143546099	264
1484	12003	2.016143546099	0.001248
1485	12301	2.020346189856	200
1486	12302	2.020346189856	208
1487	12304	2.020346189856	228
1488	12304	2.020346189856	228
1489	12307	2.020346189856	236
1490	12307	2.020346189856	264
1491	12307	2.020346189856	1
1491	12311	2.020346189856	0
1492	12307	2.020346189856	0
1493	12307	2.020346189856	1
1493	12310	2.020346189856	0
1494	12311	2.020346189856	264
1495	12311	2.020346189856	0
1496	12311	2.020346189856	1
1496	12363	2.021594189856	0
1497	12311	2.020346189856	2000000
1498	12311	2.020346189856	264
1499	12311	2.020346189856	1
1499	12363	2.021594189856	0
1500	12312	2.020346189856	1
1500	12313	2.020346189856	2
1500	12363	2.021594189856	1
1500	12364	2.021594189856	0
1501	12363	2.021594189856	264
1502	12363	2.021594189856	264
1503	12363	2.021594189856	264
1504	12363	2.021594189856	264
1505	12363	2.021594189856	0.001248
1506	12655	2.026367511035	200
1507	12656	2.026367511035	208
1508	12658	2.026367511035	228
1509	12658	2.026367511035	228
1510	12661	2.026367511035	236
1511	12661	2.026367511035	264
1512	12661	2.026367511035	1
1512	12665	2.026367511035	0
1513	12661	2.026367511035	1
1514	12661	2.026367511035	1
1514	12664	2.026367511035	0
1515	12665	2.026367511035	264
1516	12665	2.026367511035	0
1517	12665	2.026367511035	1
1517	12717	2.027615511035	0
1518	12665	2.026367511035	2000000
1519	12665	2.026367511035	264
1520	12665	2.026367511035	1
1520	12717	2.027615511035	0
1521	12666	2.026367511035	1
1521	12667	2.026367511035	2
1521	12717	2.027615511035	1
1521	12718	2.027615511035	0
1522	12717	2.027615511035	264
1523	12717	2.027615511035	264
1524	12717	2.027615511035	264
1525	12717	2.027615511035	264
1526	12717	2.027615511035	0.001248
1527	13014	2.032691907403	200
1528	13015	2.032691907403	208
1529	13017	2.032691907403	228
1530	13017	2.032691907403	228
1531	13020	2.032691907403	236
1532	13020	2.032691907403	264
1533	13020	2.032691907403	1
1533	13024	2.032691907403	0
1534	13020	2.032691907403	2
1535	13020	2.032691907403	1
1535	13023	2.032691907403	0
1536	13024	2.032691907403	264
1537	13024	2.032691907403	0
1538	13024	2.032691907403	1
1538	13076	2.033939907403	0
1539	13024	2.032691907403	2000000
1540	13024	2.032691907403	264
1541	13024	2.032691907403	1
1541	13076	2.033939907403	0
1542	13025	2.032691907403	1
1542	13026	2.032691907403	2
1542	13076	2.033939907403	1
1542	13077	2.033939907403	0
1543	13076	2.033939907403	264
1544	13076	2.033939907403	264
1545	13076	2.033939907403	264
1546	13076	2.033939907403	264
1547	13076	2.033939907403	0.001248
1548	13369	2.048406516492	200
1549	13370	2.048406516492	208
1550	13372	2.048406516492	228
1551	13372	2.048406516492	228
1552	13375	2.048406516492	236
1553	13375	2.048406516492	264
1554	13375	2.048406516492	1
1554	13379	2.048406516492	0
1555	13375	2.048406516492	4
1556	13375	2.048406516492	1
1556	13378	2.048406516492	0
1557	13379	2.048406516492	264
1558	13379	2.048406516492	0
1559	13379	2.048406516492	1
1559	13431	2.049654516492	0
1560	13379	2.048406516492	2000000
1561	13379	2.048406516492	264
1562	13379	2.048406516492	1
1562	13431	2.049654516492	0
1563	13380	2.048406516492	1
1563	13381	2.048406516492	2
1563	13431	2.049654516492	1
1563	13432	2.049654516492	0
1564	13431	2.049654516492	264
1565	13431	2.049654516492	264
1566	13431	2.049654516492	264
1567	13431	2.049654516492	264
1568	13431	2.049654516492	0.001248
1569	13727	2.057085336244	200
1570	13728	2.057085336244	208
1571	13730	2.057085336244	228
1572	13730	2.057085336244	228
1573	13733	2.057085336244	236
1574	13733	2.057085336244	264
1575	13733	2.057085336244	1
1575	13737	2.057085336244	0
1576	13733	2.057085336244	2
1577	13733	2.057085336244	1
1577	13736	2.057085336244	0
1578	13737	2.057085336244	264
1579	13737	2.057085336244	0
1580	13737	2.057085336244	1
1580	13789	2.058333336244	0
1581	13737	2.057085336244	2000000
1582	13737	2.057085336244	264
1583	13737	2.057085336244	1
1583	13789	2.058333336244	0
1584	13738	2.057085336244	1
1584	13739	2.057085336244	2
1584	13789	2.058333336244	1
1584	13790	2.058333336244	0
1585	13789	2.058333336244	264
1586	13789	2.058333336244	264
1587	13789	2.058333336244	264
1588	13789	2.058333336244	264
1589	13789	2.058333336244	0.001248
1590	14086	2.063332710112	200
1591	14087	2.063332710112	208
1592	14089	2.063332710112	228
1593	14089	2.063332710112	228
1594	14092	2.063332710112	236
1595	14092	2.063332710112	264
1596	14092	2.063332710112	1
1596	14096	2.063332710112	0
1597	14092	2.063332710112	0
1598	14092	2.063332710112	1
1598	14095	2.063332710112	0
1599	14096	2.063332710112	264
1600	14096	2.063332710112	0
1601	14096	2.063332710112	1
1601	14148	2.064580710112	0
1602	14096	2.063332710112	2000000
1603	14096	2.063332710112	264
1604	14096	2.063332710112	1
1604	14148	2.064580710112	0
1605	14097	2.063332710112	1
1605	14098	2.063332710112	2
1605	14148	2.064580710112	1
1605	14149	2.064580710112	0
1606	14148	2.064580710112	264
1607	14148	2.064580710112	264
1608	14148	2.064580710112	264
1609	14148	2.064580710112	264
1610	14148	2.064580710112	0.001248
1611	14446	2.090482654065	200
1612	14447	2.090482654065	208
1613	14449	2.090482654065	228
1614	14449	2.090482654065	228
1615	14452	2.090482654065	236
1616	14452	2.090482654065	264
1617	14452	2.090482654065	1
1617	14456	2.090482654065	0
1618	14452	2.090482654065	5
1619	14452	2.090482654065	1
1619	14455	2.090482654065	0
1620	14456	2.090482654065	264
1621	14456	2.090482654065	0
1622	14456	2.090482654065	1
1622	14508	2.091730654065	0
1623	14456	2.090482654065	2000000
1624	14456	2.090482654065	264
1625	14456	2.090482654065	1
1625	14508	2.091730654065	0
1626	14457	2.090482654065	1
1626	14458	2.090482654065	2
1626	14508	2.091730654065	1
1626	14509	2.091730654065	0
1627	14508	2.091730654065	264
1628	14508	2.091730654065	264
1629	14508	2.091730654065	264
1630	14508	2.091730654065	264
1631	14508	2.091730654065	0.001248
1632	14775	2.10553608636	200
1633	14776	2.10553608636	208
1634	14778	2.10553608636	228
1635	14778	2.10553608636	228
1636	14781	2.10553608636	236
1637	14781	2.10553608636	264
1638	14781	2.10553608636	1
1638	14785	2.10553608636	0
1639	14781	2.10553608636	3
1640	14781	2.10553608636	1
1640	14784	2.10553608636	0
1641	14785	2.10553608636	264
1642	14785	2.10553608636	0
1643	14785	2.10553608636	1
1643	14837	2.10678408636	0
1644	14785	2.10553608636	2000000
1645	14785	2.10553608636	264
1646	14785	2.10553608636	1
1646	14837	2.10678408636	0
1647	14786	2.10553608636	1
1647	14787	2.10553608636	2
1647	14837	2.10678408636	1
1647	14838	2.10678408636	0
1648	14837	2.10678408636	264
1649	14837	2.10678408636	264
1650	14837	2.10678408636	264
1651	14837	2.10678408636	264
1652	14837	2.10678408636	0.001248
1653	15118	2.114578849976	200
1654	15119	2.114578849976	208
1655	15121	2.114578849976	228
1656	15121	2.114578849976	228
1657	15124	2.114578849976	236
1658	15124	2.114578849976	264
1659	15124	2.114578849976	1
1659	15128	2.114578849976	0
1660	15124	2.114578849976	2
1661	15124	2.114578849976	1
1661	15127	2.114578849976	0
1662	15128	2.114578849976	264
1663	15128	2.114578849976	0
1664	15128	2.114578849976	1
1664	15189	2.115826849976	0
1665	15128	2.114578849976	2000000
1666	15128	2.114578849976	264
1667	15128	2.114578849976	1
1667	15189	2.115826849976	0
1668	15129	2.114578849976	1
1668	15130	2.114578849976	2
1668	15189	2.115826849976	1
1668	15190	2.115826849976	0
1669	15180	2.114678767216	200
1670	15181	2.114678767216	208
1671	15183	2.114678767216	228
1672	15183	2.114678767216	228
1673	15186	2.114678767216	236
1674	15186	2.114678767216	264
1675	15186	2.114678767216	1
1675	15466	2.115917587863	0
1676	15186	2.114678767216	2
1677	15189	2.115826849976	264
1678	15189	2.115826849976	264
1679	15189	2.115826849976	264
1680	15189	2.115826849976	264
1681	15189	2.115826849976	0.001248
1682	15437	2.115827587863	1
1682	15465	2.115917587863	0
1683	15466	2.115917587863	264
1684	15466	2.115917587863	0.001238820647
1685	15466	2.115917587863	1
1685	15519	2.117165587863	0
1686	15466	2.115917587863	2000000
1687	15466	2.115917587863	264
1688	15466	2.115917587863	1
1688	15519	2.117165587863	0
1689	15467	2.115917587863	1
1689	15468	2.115917587863	2
1689	15519	2.117165587863	1
1689	15520	2.117165587863	0
1690	15519	2.117165587863	264
1691	15519	2.117165587863	264
1692	15519	2.117165587863	264
1693	15519	2.117165587863	264
1694	15519	2.117165587863	0.001248
1695	15817	2.131138607299	200
1696	15818	2.131138607299	208
1697	15820	2.131138607299	228
1698	15820	2.131138607299	228
1699	15823	2.131138607299	236
1700	15823	2.131138607299	264
1701	15823	2.131138607299	1
1701	15827	2.131138607299	0
1702	15823	2.131138607299	5
1703	15823	2.131138607299	1
1703	15826	2.131138607299	0
1704	15827	2.131138607299	264
1705	15827	2.131138607299	0
1706	15827	2.131138607299	1
1706	15888	2.132386607299	0
1707	15827	2.131138607299	2000000
1708	15827	2.131138607299	264
1709	15827	2.131138607299	1
1709	15888	2.132386607299	0
1710	15828	2.131138607299	1
1710	15829	2.131138607299	2
1710	15888	2.132386607299	1
1710	15889	2.132386607299	0
1711	15879	2.131506567108	200
1712	15880	2.131506567108	208
1713	15882	2.131506567108	228
1714	15882	2.131506567108	228
1715	15885	2.131506567108	236
1716	15885	2.131506567108	264
1717	15885	2.131506567108	1
1717	16185	2.132437125806	0
1718	15885	2.131506567108	0
1719	15888	2.132386607299	264
1720	15888	2.132386607299	264
1721	15888	2.132386607299	264
1722	15888	2.132386607299	264
1723	15888	2.132386607299	0.001248
1724	16052	2.132387125806	1
1724	16184	2.132437125806	0
1725	16185	2.132437125806	264
1726	16185	2.132437125806	0.000930558698
1727	16185	2.132437125806	1
1727	16237	2.133685125806	0
1728	16185	2.132437125806	2000000
1729	16185	2.132437125806	264
1730	16185	2.132437125806	1
1730	16237	2.133685125806	0
1731	16186	2.132437125806	1
1731	16187	2.132437125806	2
1731	16237	2.133685125806	1
1731	16238	2.133685125806	0
1732	16237	2.133685125806	264
1733	16237	2.133685125806	264
1734	16237	2.133685125806	264
1735	16237	2.133685125806	264
1736	16237	2.133685125806	0.001248
1737	16533	2.141563128781	200
1738	16534	2.141563128781	208
1739	16536	2.141563128781	228
1740	16536	2.141563128781	228
1741	16539	2.141563128781	236
1742	16539	2.141563128781	264
1743	16539	2.141563128781	1
1743	16543	2.141563128781	0
1744	16539	2.141563128781	7
1745	16539	2.141563128781	1
1745	16542	2.141563128781	0
1746	16543	2.141563128781	264
1747	16543	2.141563128781	0
1748	16543	2.141563128781	1
1748	16596	2.142811128781	0
1749	16543	2.141563128781	2000000
1750	16543	2.141563128781	264
1751	16543	2.141563128781	1
1751	16596	2.142811128781	0
1752	16544	2.141563128781	1
1752	16545	2.141563128781	2
1752	16596	2.142811128781	1
1752	16597	2.142811128781	0
1753	16596	2.142811128781	264
1754	16596	2.142811128781	264
1755	16596	2.142811128781	264
1756	16596	2.142811128781	264
1757	16596	2.142811128781	0.001248
1758	16894	2.162678264556	200
1759	16895	2.162678264556	208
1760	16897	2.162678264556	228
1761	16897	2.162678264556	228
1762	16900	2.162678264556	236
1763	16900	2.162678264556	264
1764	16900	2.162678264556	1
1764	16904	2.162678264556	0
1765	16900	2.162678264556	5
1766	16900	2.162678264556	1
1766	16903	2.162678264556	0
1767	16904	2.162678264556	264
1768	16904	2.162678264556	0
1769	16904	2.162678264556	1
1769	16956	2.163926264556	0
1770	16904	2.162678264556	2000000
1771	16904	2.162678264556	264
1772	16904	2.162678264556	1
1772	16956	2.163926264556	0
1773	16905	2.162678264556	1
1773	16906	2.162678264556	2
1773	16956	2.163926264556	1
1773	16957	2.163926264556	0
1774	16956	2.163926264556	264
1775	16956	2.163926264556	264
1776	16956	2.163926264556	264
1777	16956	2.163926264556	264
1778	16956	2.163926264556	0.001248

